/*---------------------------------------------------------------------------*\
| =========                 |                                                 |
| \\      /  F ield         | OpenFOAM: The Open Source CFD Toolbox           |
|  \\    /   O peration     | Version:  dev                                   |
|   \\  /    A nd           | Web:      www.OpenFOAM.org                      |
|    \\/     M anipulation  |                                                 |
\*---------------------------------------------------------------------------*/
Build  : dev-bfe787b4fc80
Exec   : diffusiveFluxFoam
Date   : Apr 27 2018
Time   : 17:05:14
Host   : "gh648-1384"
PID    : 20027
I/O    : uncollated
Case   : /home/workbox/Public/heat_mass_transfer/MT/cfd_sim/cases/case2
nProcs : 1
sigFpe : Enabling floating point exception trapping (FOAM_SIGFPE).
fileModificationChecking : Monitoring run-time modified files using timeStampMaster (fileModificationSkew 10)
allowSystemOperations : Allowing user-supplied system call operations

// * * * * * * * * * * * * * * * * * * * * * * * * * * * * * * * * * * * * * //
Create time

Create mesh for time = 25


PIMPLE: Operating solver in PISO mode

Reading field p

Reading field U

Reading/calculating face flux field phi

Selecting incompressible transport model Newtonian
Selecting turbulence model type laminar
Selecting laminar stress model Stokes
Reading field A

Reading field B

Reading transport properties

Reading diffusivities

No MRF models present

No finite volume options present

Starting time loop

Courant Number mean: 0 max: 0
Time = 25.005

PIMPLE: iteration 1
GAMG:  Solving for p, Initial residual = 0, Final residual = 0, No Iterations 0
time step continuity errors : sum local = 0, global = 0, cumulative = 0
smoothSolver:  Solving for A, Initial residual = 1.3305433e-05, Final residual = 7.4960998e-12, No Iterations 1
smoothSolver:  Solving for B, Initial residual = 0, Final residual = 0, No Iterations 0
ExecutionTime = 0.09 s  ClockTime = 0 s

Courant Number mean: 0 max: 0
Time = 25.01

PIMPLE: iteration 1
GAMG:  Solving for p, Initial residual = 0, Final residual = 0, No Iterations 0
time step continuity errors : sum local = 0, global = 0, cumulative = 0
smoothSolver:  Solving for A, Initial residual = 1.3303963e-05, Final residual = 7.4954035e-12, No Iterations 1
smoothSolver:  Solving for B, Initial residual = 0, Final residual = 0, No Iterations 0
ExecutionTime = 0.1 s  ClockTime = 0 s

Courant Number mean: 0 max: 0
Time = 25.015

PIMPLE: iteration 1
GAMG:  Solving for p, Initial residual = 0, Final residual = 0, No Iterations 0
time step continuity errors : sum local = 0, global = 0, cumulative = 0
smoothSolver:  Solving for A, Initial residual = 1.3302487e-05, Final residual = 7.4947133e-12, No Iterations 1
smoothSolver:  Solving for B, Initial residual = 0, Final residual = 0, No Iterations 0
ExecutionTime = 0.12 s  ClockTime = 0 s

Courant Number mean: 0 max: 0
Time = 25.02

PIMPLE: iteration 1
GAMG:  Solving for p, Initial residual = 0, Final residual = 0, No Iterations 0
time step continuity errors : sum local = 0, global = 0, cumulative = 0
smoothSolver:  Solving for A, Initial residual = 1.330101e-05, Final residual = 7.4940408e-12, No Iterations 1
smoothSolver:  Solving for B, Initial residual = 0, Final residual = 0, No Iterations 0
ExecutionTime = 0.14 s  ClockTime = 0 s

Courant Number mean: 0 max: 0
Time = 25.025

PIMPLE: iteration 1
GAMG:  Solving for p, Initial residual = 0, Final residual = 0, No Iterations 0
time step continuity errors : sum local = 0, global = 0, cumulative = 0
smoothSolver:  Solving for A, Initial residual = 1.3299533e-05, Final residual = 7.4933518e-12, No Iterations 1
smoothSolver:  Solving for B, Initial residual = 0, Final residual = 0, No Iterations 0
ExecutionTime = 0.16 s  ClockTime = 0 s

Courant Number mean: 0 max: 0
Time = 25.03

PIMPLE: iteration 1
GAMG:  Solving for p, Initial residual = 0, Final residual = 0, No Iterations 0
time step continuity errors : sum local = 0, global = 0, cumulative = 0
smoothSolver:  Solving for A, Initial residual = 1.3298056e-05, Final residual = 7.4926663e-12, No Iterations 1
smoothSolver:  Solving for B, Initial residual = 0, Final residual = 0, No Iterations 0
ExecutionTime = 0.18 s  ClockTime = 0 s

Courant Number mean: 0 max: 0
Time = 25.035

PIMPLE: iteration 1
GAMG:  Solving for p, Initial residual = 0, Final residual = 0, No Iterations 0
time step continuity errors : sum local = 0, global = 0, cumulative = 0
smoothSolver:  Solving for A, Initial residual = 1.3296579e-05, Final residual = 7.4919847e-12, No Iterations 1
smoothSolver:  Solving for B, Initial residual = 0, Final residual = 0, No Iterations 0
ExecutionTime = 0.19 s  ClockTime = 0 s

Courant Number mean: 0 max: 0
Time = 25.04

PIMPLE: iteration 1
GAMG:  Solving for p, Initial residual = 0, Final residual = 0, No Iterations 0
time step continuity errors : sum local = 0, global = 0, cumulative = 0
smoothSolver:  Solving for A, Initial residual = 1.3295103e-05, Final residual = 7.4913017e-12, No Iterations 1
smoothSolver:  Solving for B, Initial residual = 0, Final residual = 0, No Iterations 0
ExecutionTime = 0.22 s  ClockTime = 0 s

Courant Number mean: 0 max: 0
Time = 25.045

PIMPLE: iteration 1
GAMG:  Solving for p, Initial residual = 0, Final residual = 0, No Iterations 0
time step continuity errors : sum local = 0, global = 0, cumulative = 0
smoothSolver:  Solving for A, Initial residual = 1.3293628e-05, Final residual = 7.4906112e-12, No Iterations 1
smoothSolver:  Solving for B, Initial residual = 0, Final residual = 0, No Iterations 0
ExecutionTime = 0.23 s  ClockTime = 0 s

Courant Number mean: 0 max: 0
Time = 25.05

PIMPLE: iteration 1
GAMG:  Solving for p, Initial residual = 0, Final residual = 0, No Iterations 0
time step continuity errors : sum local = 0, global = 0, cumulative = 0
smoothSolver:  Solving for A, Initial residual = 1.3292153e-05, Final residual = 7.4899291e-12, No Iterations 1
smoothSolver:  Solving for B, Initial residual = 0, Final residual = 0, No Iterations 0
ExecutionTime = 0.25 s  ClockTime = 0 s

Courant Number mean: 0 max: 0
Time = 25.055

PIMPLE: iteration 1
GAMG:  Solving for p, Initial residual = 0, Final residual = 0, No Iterations 0
time step continuity errors : sum local = 0, global = 0, cumulative = 0
smoothSolver:  Solving for A, Initial residual = 1.3290678e-05, Final residual = 7.4892503e-12, No Iterations 1
smoothSolver:  Solving for B, Initial residual = 0, Final residual = 0, No Iterations 0
ExecutionTime = 0.27 s  ClockTime = 0 s

Courant Number mean: 0 max: 0
Time = 25.06

PIMPLE: iteration 1
GAMG:  Solving for p, Initial residual = 0, Final residual = 0, No Iterations 0
time step continuity errors : sum local = 0, global = 0, cumulative = 0
smoothSolver:  Solving for A, Initial residual = 1.3289205e-05, Final residual = 7.4885748e-12, No Iterations 1
smoothSolver:  Solving for B, Initial residual = 0, Final residual = 0, No Iterations 0
ExecutionTime = 0.29 s  ClockTime = 0 s

Courant Number mean: 0 max: 0
Time = 25.065

PIMPLE: iteration 1
GAMG:  Solving for p, Initial residual = 0, Final residual = 0, No Iterations 0
time step continuity errors : sum local = 0, global = 0, cumulative = 0
smoothSolver:  Solving for A, Initial residual = 1.3287731e-05, Final residual = 7.487883e-12, No Iterations 1
smoothSolver:  Solving for B, Initial residual = 0, Final residual = 0, No Iterations 0
ExecutionTime = 0.3 s  ClockTime = 0 s

Courant Number mean: 0 max: 0
Time = 25.07

PIMPLE: iteration 1
GAMG:  Solving for p, Initial residual = 0, Final residual = 0, No Iterations 0
time step continuity errors : sum local = 0, global = 0, cumulative = 0
smoothSolver:  Solving for A, Initial residual = 1.3286258e-05, Final residual = 7.4871999e-12, No Iterations 1
smoothSolver:  Solving for B, Initial residual = 0, Final residual = 0, No Iterations 0
ExecutionTime = 0.32 s  ClockTime = 0 s

Courant Number mean: 0 max: 0
Time = 25.075

PIMPLE: iteration 1
GAMG:  Solving for p, Initial residual = 0, Final residual = 0, No Iterations 0
time step continuity errors : sum local = 0, global = 0, cumulative = 0
smoothSolver:  Solving for A, Initial residual = 1.3284786e-05, Final residual = 7.4865248e-12, No Iterations 1
smoothSolver:  Solving for B, Initial residual = 0, Final residual = 0, No Iterations 0
ExecutionTime = 0.34 s  ClockTime = 0 s

Courant Number mean: 0 max: 0
Time = 25.08

PIMPLE: iteration 1
GAMG:  Solving for p, Initial residual = 0, Final residual = 0, No Iterations 0
time step continuity errors : sum local = 0, global = 0, cumulative = 0
smoothSolver:  Solving for A, Initial residual = 1.3283314e-05, Final residual = 7.4858367e-12, No Iterations 1
smoothSolver:  Solving for B, Initial residual = 0, Final residual = 0, No Iterations 0
ExecutionTime = 0.37 s  ClockTime = 0 s

Courant Number mean: 0 max: 0
Time = 25.085

PIMPLE: iteration 1
GAMG:  Solving for p, Initial residual = 0, Final residual = 0, No Iterations 0
time step continuity errors : sum local = 0, global = 0, cumulative = 0
smoothSolver:  Solving for A, Initial residual = 1.3281843e-05, Final residual = 7.4851509e-12, No Iterations 1
smoothSolver:  Solving for B, Initial residual = 0, Final residual = 0, No Iterations 0
ExecutionTime = 0.38 s  ClockTime = 0 s

Courant Number mean: 0 max: 0
Time = 25.09

PIMPLE: iteration 1
GAMG:  Solving for p, Initial residual = 0, Final residual = 0, No Iterations 0
time step continuity errors : sum local = 0, global = 0, cumulative = 0
smoothSolver:  Solving for A, Initial residual = 1.3280372e-05, Final residual = 7.484477e-12, No Iterations 1
smoothSolver:  Solving for B, Initial residual = 0, Final residual = 0, No Iterations 0
ExecutionTime = 0.39 s  ClockTime = 0 s

Courant Number mean: 0 max: 0
Time = 25.095

PIMPLE: iteration 1
GAMG:  Solving for p, Initial residual = 0, Final residual = 0, No Iterations 0
time step continuity errors : sum local = 0, global = 0, cumulative = 0
smoothSolver:  Solving for A, Initial residual = 1.3278902e-05, Final residual = 7.4837885e-12, No Iterations 1
smoothSolver:  Solving for B, Initial residual = 0, Final residual = 0, No Iterations 0
ExecutionTime = 0.41 s  ClockTime = 0 s

Courant Number mean: 0 max: 0
Time = 25.1

PIMPLE: iteration 1
GAMG:  Solving for p, Initial residual = 0, Final residual = 0, No Iterations 0
time step continuity errors : sum local = 0, global = 0, cumulative = 0
smoothSolver:  Solving for A, Initial residual = 1.3277432e-05, Final residual = 7.4831151e-12, No Iterations 1
smoothSolver:  Solving for B, Initial residual = 0, Final residual = 0, No Iterations 0
ExecutionTime = 0.43 s  ClockTime = 0 s

Courant Number mean: 0 max: 0
Time = 25.105

PIMPLE: iteration 1
GAMG:  Solving for p, Initial residual = 0, Final residual = 0, No Iterations 0
time step continuity errors : sum local = 0, global = 0, cumulative = 0
smoothSolver:  Solving for A, Initial residual = 1.3275963e-05, Final residual = 7.482434e-12, No Iterations 1
smoothSolver:  Solving for B, Initial residual = 0, Final residual = 0, No Iterations 0
ExecutionTime = 0.45 s  ClockTime = 0 s

Courant Number mean: 0 max: 0
Time = 25.11

PIMPLE: iteration 1
GAMG:  Solving for p, Initial residual = 0, Final residual = 0, No Iterations 0
time step continuity errors : sum local = 0, global = 0, cumulative = 0
smoothSolver:  Solving for A, Initial residual = 1.3274494e-05, Final residual = 7.4817502e-12, No Iterations 1
smoothSolver:  Solving for B, Initial residual = 0, Final residual = 0, No Iterations 0
ExecutionTime = 0.46 s  ClockTime = 0 s

Courant Number mean: 0 max: 0
Time = 25.115

PIMPLE: iteration 1
GAMG:  Solving for p, Initial residual = 0, Final residual = 0, No Iterations 0
time step continuity errors : sum local = 0, global = 0, cumulative = 0
smoothSolver:  Solving for A, Initial residual = 1.3273026e-05, Final residual = 7.481067e-12, No Iterations 1
smoothSolver:  Solving for B, Initial residual = 0, Final residual = 0, No Iterations 0
ExecutionTime = 0.49 s  ClockTime = 0 s

Courant Number mean: 0 max: 0
Time = 25.12

PIMPLE: iteration 1
GAMG:  Solving for p, Initial residual = 0, Final residual = 0, No Iterations 0
time step continuity errors : sum local = 0, global = 0, cumulative = 0
smoothSolver:  Solving for A, Initial residual = 1.3271559e-05, Final residual = 7.4803854e-12, No Iterations 1
smoothSolver:  Solving for B, Initial residual = 0, Final residual = 0, No Iterations 0
ExecutionTime = 0.5 s  ClockTime = 0 s

Courant Number mean: 0 max: 0
Time = 25.125

PIMPLE: iteration 1
GAMG:  Solving for p, Initial residual = 0, Final residual = 0, No Iterations 0
time step continuity errors : sum local = 0, global = 0, cumulative = 0
smoothSolver:  Solving for A, Initial residual = 1.3270092e-05, Final residual = 7.4797059e-12, No Iterations 1
smoothSolver:  Solving for B, Initial residual = 0, Final residual = 0, No Iterations 0
ExecutionTime = 0.52 s  ClockTime = 0 s

Courant Number mean: 0 max: 0
Time = 25.13

PIMPLE: iteration 1
GAMG:  Solving for p, Initial residual = 0, Final residual = 0, No Iterations 0
time step continuity errors : sum local = 0, global = 0, cumulative = 0
smoothSolver:  Solving for A, Initial residual = 1.3268625e-05, Final residual = 7.4790304e-12, No Iterations 1
smoothSolver:  Solving for B, Initial residual = 0, Final residual = 0, No Iterations 0
ExecutionTime = 0.55 s  ClockTime = 0 s

Courant Number mean: 0 max: 0
Time = 25.135

PIMPLE: iteration 1
GAMG:  Solving for p, Initial residual = 0, Final residual = 0, No Iterations 0
time step continuity errors : sum local = 0, global = 0, cumulative = 0
smoothSolver:  Solving for A, Initial residual = 1.3267159e-05, Final residual = 7.4783531e-12, No Iterations 1
smoothSolver:  Solving for B, Initial residual = 0, Final residual = 0, No Iterations 0
ExecutionTime = 0.56 s  ClockTime = 0 s

Courant Number mean: 0 max: 0
Time = 25.14

PIMPLE: iteration 1
GAMG:  Solving for p, Initial residual = 0, Final residual = 0, No Iterations 0
time step continuity errors : sum local = 0, global = 0, cumulative = 0
smoothSolver:  Solving for A, Initial residual = 1.3265694e-05, Final residual = 7.4776676e-12, No Iterations 1
smoothSolver:  Solving for B, Initial residual = 0, Final residual = 0, No Iterations 0
ExecutionTime = 0.58 s  ClockTime = 0 s

Courant Number mean: 0 max: 0
Time = 25.145

PIMPLE: iteration 1
GAMG:  Solving for p, Initial residual = 0, Final residual = 0, No Iterations 0
time step continuity errors : sum local = 0, global = 0, cumulative = 0
smoothSolver:  Solving for A, Initial residual = 1.3264229e-05, Final residual = 7.4769919e-12, No Iterations 1
smoothSolver:  Solving for B, Initial residual = 0, Final residual = 0, No Iterations 0
ExecutionTime = 0.59 s  ClockTime = 0 s

Courant Number mean: 0 max: 0
Time = 25.15

PIMPLE: iteration 1
GAMG:  Solving for p, Initial residual = 0, Final residual = 0, No Iterations 0
time step continuity errors : sum local = 0, global = 0, cumulative = 0
smoothSolver:  Solving for A, Initial residual = 1.3262764e-05, Final residual = 7.476315e-12, No Iterations 1
smoothSolver:  Solving for B, Initial residual = 0, Final residual = 0, No Iterations 0
ExecutionTime = 0.61 s  ClockTime = 0 s

Courant Number mean: 0 max: 0
Time = 25.155

PIMPLE: iteration 1
GAMG:  Solving for p, Initial residual = 0, Final residual = 0, No Iterations 0
time step continuity errors : sum local = 0, global = 0, cumulative = 0
smoothSolver:  Solving for A, Initial residual = 1.32613e-05, Final residual = 7.4756356e-12, No Iterations 1
smoothSolver:  Solving for B, Initial residual = 0, Final residual = 0, No Iterations 0
ExecutionTime = 0.63 s  ClockTime = 0 s

Courant Number mean: 0 max: 0
Time = 25.16

PIMPLE: iteration 1
GAMG:  Solving for p, Initial residual = 0, Final residual = 0, No Iterations 0
time step continuity errors : sum local = 0, global = 0, cumulative = 0
smoothSolver:  Solving for A, Initial residual = 1.3259837e-05, Final residual = 7.4749544e-12, No Iterations 1
smoothSolver:  Solving for B, Initial residual = 0, Final residual = 0, No Iterations 0
ExecutionTime = 0.64 s  ClockTime = 0 s

Courant Number mean: 0 max: 0
Time = 25.165

PIMPLE: iteration 1
GAMG:  Solving for p, Initial residual = 0, Final residual = 0, No Iterations 0
time step continuity errors : sum local = 0, global = 0, cumulative = 0
smoothSolver:  Solving for A, Initial residual = 1.3258374e-05, Final residual = 7.4742775e-12, No Iterations 1
smoothSolver:  Solving for B, Initial residual = 0, Final residual = 0, No Iterations 0
ExecutionTime = 0.66 s  ClockTime = 0 s

Courant Number mean: 0 max: 0
Time = 25.17

PIMPLE: iteration 1
GAMG:  Solving for p, Initial residual = 0, Final residual = 0, No Iterations 0
time step continuity errors : sum local = 0, global = 0, cumulative = 0
smoothSolver:  Solving for A, Initial residual = 1.3256912e-05, Final residual = 7.4735986e-12, No Iterations 1
smoothSolver:  Solving for B, Initial residual = 0, Final residual = 0, No Iterations 0
ExecutionTime = 0.68 s  ClockTime = 0 s

Courant Number mean: 0 max: 0
Time = 25.175

PIMPLE: iteration 1
GAMG:  Solving for p, Initial residual = 0, Final residual = 0, No Iterations 0
time step continuity errors : sum local = 0, global = 0, cumulative = 0
smoothSolver:  Solving for A, Initial residual = 1.325545e-05, Final residual = 7.4729184e-12, No Iterations 1
smoothSolver:  Solving for B, Initial residual = 0, Final residual = 0, No Iterations 0
ExecutionTime = 0.7 s  ClockTime = 0 s

Courant Number mean: 0 max: 0
Time = 25.18

PIMPLE: iteration 1
GAMG:  Solving for p, Initial residual = 0, Final residual = 0, No Iterations 0
time step continuity errors : sum local = 0, global = 0, cumulative = 0
smoothSolver:  Solving for A, Initial residual = 1.3253988e-05, Final residual = 7.4722462e-12, No Iterations 1
smoothSolver:  Solving for B, Initial residual = 0, Final residual = 0, No Iterations 0
ExecutionTime = 0.71 s  ClockTime = 0 s

Courant Number mean: 0 max: 0
Time = 25.185

PIMPLE: iteration 1
GAMG:  Solving for p, Initial residual = 0, Final residual = 0, No Iterations 0
time step continuity errors : sum local = 0, global = 0, cumulative = 0
smoothSolver:  Solving for A, Initial residual = 1.3252528e-05, Final residual = 7.4715643e-12, No Iterations 1
smoothSolver:  Solving for B, Initial residual = 0, Final residual = 0, No Iterations 0
ExecutionTime = 0.73 s  ClockTime = 0 s

Courant Number mean: 0 max: 0
Time = 25.19

PIMPLE: iteration 1
GAMG:  Solving for p, Initial residual = 0, Final residual = 0, No Iterations 0
time step continuity errors : sum local = 0, global = 0, cumulative = 0
smoothSolver:  Solving for A, Initial residual = 1.3251067e-05, Final residual = 7.4708878e-12, No Iterations 1
smoothSolver:  Solving for B, Initial residual = 0, Final residual = 0, No Iterations 0
ExecutionTime = 0.75 s  ClockTime = 0 s

Courant Number mean: 0 max: 0
Time = 25.195

PIMPLE: iteration 1
GAMG:  Solving for p, Initial residual = 0, Final residual = 0, No Iterations 0
time step continuity errors : sum local = 0, global = 0, cumulative = 0
smoothSolver:  Solving for A, Initial residual = 1.3249608e-05, Final residual = 7.4702116e-12, No Iterations 1
smoothSolver:  Solving for B, Initial residual = 0, Final residual = 0, No Iterations 0
ExecutionTime = 0.77 s  ClockTime = 0 s

Courant Number mean: 0 max: 0
Time = 25.2

PIMPLE: iteration 1
GAMG:  Solving for p, Initial residual = 0, Final residual = 0, No Iterations 0
time step continuity errors : sum local = 0, global = 0, cumulative = 0
smoothSolver:  Solving for A, Initial residual = 1.3248148e-05, Final residual = 7.4695328e-12, No Iterations 1
smoothSolver:  Solving for B, Initial residual = 0, Final residual = 0, No Iterations 0
ExecutionTime = 0.78 s  ClockTime = 0 s

Courant Number mean: 0 max: 0
Time = 25.205

PIMPLE: iteration 1
GAMG:  Solving for p, Initial residual = 0, Final residual = 0, No Iterations 0
time step continuity errors : sum local = 0, global = 0, cumulative = 0
smoothSolver:  Solving for A, Initial residual = 1.324669e-05, Final residual = 7.4688584e-12, No Iterations 1
smoothSolver:  Solving for B, Initial residual = 0, Final residual = 0, No Iterations 0
ExecutionTime = 0.8 s  ClockTime = 0 s

Courant Number mean: 0 max: 0
Time = 25.21

PIMPLE: iteration 1
GAMG:  Solving for p, Initial residual = 0, Final residual = 0, No Iterations 0
time step continuity errors : sum local = 0, global = 0, cumulative = 0
smoothSolver:  Solving for A, Initial residual = 1.3245231e-05, Final residual = 7.4681783e-12, No Iterations 1
smoothSolver:  Solving for B, Initial residual = 0, Final residual = 0, No Iterations 0
ExecutionTime = 0.82 s  ClockTime = 1 s

Courant Number mean: 0 max: 0
Time = 25.215

PIMPLE: iteration 1
GAMG:  Solving for p, Initial residual = 0, Final residual = 0, No Iterations 0
time step continuity errors : sum local = 0, global = 0, cumulative = 0
smoothSolver:  Solving for A, Initial residual = 1.3243774e-05, Final residual = 7.4675024e-12, No Iterations 1
smoothSolver:  Solving for B, Initial residual = 0, Final residual = 0, No Iterations 0
ExecutionTime = 0.84 s  ClockTime = 1 s

Courant Number mean: 0 max: 0
Time = 25.22

PIMPLE: iteration 1
GAMG:  Solving for p, Initial residual = 0, Final residual = 0, No Iterations 0
time step continuity errors : sum local = 0, global = 0, cumulative = 0
smoothSolver:  Solving for A, Initial residual = 1.3242316e-05, Final residual = 7.466831e-12, No Iterations 1
smoothSolver:  Solving for B, Initial residual = 0, Final residual = 0, No Iterations 0
ExecutionTime = 0.86 s  ClockTime = 1 s

Courant Number mean: 0 max: 0
Time = 25.225

PIMPLE: iteration 1
GAMG:  Solving for p, Initial residual = 0, Final residual = 0, No Iterations 0
time step continuity errors : sum local = 0, global = 0, cumulative = 0
smoothSolver:  Solving for A, Initial residual = 1.324086e-05, Final residual = 7.4661515e-12, No Iterations 1
smoothSolver:  Solving for B, Initial residual = 0, Final residual = 0, No Iterations 0
ExecutionTime = 0.87 s  ClockTime = 1 s

Courant Number mean: 0 max: 0
Time = 25.23

PIMPLE: iteration 1
GAMG:  Solving for p, Initial residual = 0, Final residual = 0, No Iterations 0
time step continuity errors : sum local = 0, global = 0, cumulative = 0
smoothSolver:  Solving for A, Initial residual = 1.3239404e-05, Final residual = 7.4654698e-12, No Iterations 1
smoothSolver:  Solving for B, Initial residual = 0, Final residual = 0, No Iterations 0
ExecutionTime = 0.9 s  ClockTime = 1 s

Courant Number mean: 0 max: 0
Time = 25.235

PIMPLE: iteration 1
GAMG:  Solving for p, Initial residual = 0, Final residual = 0, No Iterations 0
time step continuity errors : sum local = 0, global = 0, cumulative = 0
smoothSolver:  Solving for A, Initial residual = 1.3237948e-05, Final residual = 7.4648023e-12, No Iterations 1
smoothSolver:  Solving for B, Initial residual = 0, Final residual = 0, No Iterations 0
ExecutionTime = 0.91 s  ClockTime = 1 s

Courant Number mean: 0 max: 0
Time = 25.24

PIMPLE: iteration 1
GAMG:  Solving for p, Initial residual = 0, Final residual = 0, No Iterations 0
time step continuity errors : sum local = 0, global = 0, cumulative = 0
smoothSolver:  Solving for A, Initial residual = 1.3236493e-05, Final residual = 7.4641248e-12, No Iterations 1
smoothSolver:  Solving for B, Initial residual = 0, Final residual = 0, No Iterations 0
ExecutionTime = 0.93 s  ClockTime = 1 s

Courant Number mean: 0 max: 0
Time = 25.245

PIMPLE: iteration 1
GAMG:  Solving for p, Initial residual = 0, Final residual = 0, No Iterations 0
time step continuity errors : sum local = 0, global = 0, cumulative = 0
smoothSolver:  Solving for A, Initial residual = 1.3235038e-05, Final residual = 7.4634481e-12, No Iterations 1
smoothSolver:  Solving for B, Initial residual = 0, Final residual = 0, No Iterations 0
ExecutionTime = 0.94 s  ClockTime = 1 s

Courant Number mean: 0 max: 0
Time = 25.25

PIMPLE: iteration 1
GAMG:  Solving for p, Initial residual = 0, Final residual = 0, No Iterations 0
time step continuity errors : sum local = 0, global = 0, cumulative = 0
smoothSolver:  Solving for A, Initial residual = 1.3233584e-05, Final residual = 7.4627709e-12, No Iterations 1
smoothSolver:  Solving for B, Initial residual = 0, Final residual = 0, No Iterations 0
ExecutionTime = 0.96 s  ClockTime = 1 s

Courant Number mean: 0 max: 0
Time = 25.255

PIMPLE: iteration 1
GAMG:  Solving for p, Initial residual = 0, Final residual = 0, No Iterations 0
time step continuity errors : sum local = 0, global = 0, cumulative = 0
smoothSolver:  Solving for A, Initial residual = 1.3232131e-05, Final residual = 7.4620984e-12, No Iterations 1
smoothSolver:  Solving for B, Initial residual = 0, Final residual = 0, No Iterations 0
ExecutionTime = 0.97 s  ClockTime = 1 s

Courant Number mean: 0 max: 0
Time = 25.26

PIMPLE: iteration 1
GAMG:  Solving for p, Initial residual = 0, Final residual = 0, No Iterations 0
time step continuity errors : sum local = 0, global = 0, cumulative = 0
smoothSolver:  Solving for A, Initial residual = 1.3230678e-05, Final residual = 7.461422e-12, No Iterations 1
smoothSolver:  Solving for B, Initial residual = 0, Final residual = 0, No Iterations 0
ExecutionTime = 1 s  ClockTime = 1 s

Courant Number mean: 0 max: 0
Time = 25.265

PIMPLE: iteration 1
GAMG:  Solving for p, Initial residual = 0, Final residual = 0, No Iterations 0
time step continuity errors : sum local = 0, global = 0, cumulative = 0
smoothSolver:  Solving for A, Initial residual = 1.3229225e-05, Final residual = 7.4607505e-12, No Iterations 1
smoothSolver:  Solving for B, Initial residual = 0, Final residual = 0, No Iterations 0
ExecutionTime = 1.02 s  ClockTime = 1 s

Courant Number mean: 0 max: 0
Time = 25.27

PIMPLE: iteration 1
GAMG:  Solving for p, Initial residual = 0, Final residual = 0, No Iterations 0
time step continuity errors : sum local = 0, global = 0, cumulative = 0
smoothSolver:  Solving for A, Initial residual = 1.3227773e-05, Final residual = 7.4600713e-12, No Iterations 1
smoothSolver:  Solving for B, Initial residual = 0, Final residual = 0, No Iterations 0
ExecutionTime = 1.03 s  ClockTime = 1 s

Courant Number mean: 0 max: 0
Time = 25.275

PIMPLE: iteration 1
GAMG:  Solving for p, Initial residual = 0, Final residual = 0, No Iterations 0
time step continuity errors : sum local = 0, global = 0, cumulative = 0
smoothSolver:  Solving for A, Initial residual = 1.3226322e-05, Final residual = 7.4594028e-12, No Iterations 1
smoothSolver:  Solving for B, Initial residual = 0, Final residual = 0, No Iterations 0
ExecutionTime = 1.05 s  ClockTime = 1 s

Courant Number mean: 0 max: 0
Time = 25.28

PIMPLE: iteration 1
GAMG:  Solving for p, Initial residual = 0, Final residual = 0, No Iterations 0
time step continuity errors : sum local = 0, global = 0, cumulative = 0
smoothSolver:  Solving for A, Initial residual = 1.3224871e-05, Final residual = 7.4587275e-12, No Iterations 1
smoothSolver:  Solving for B, Initial residual = 0, Final residual = 0, No Iterations 0
ExecutionTime = 1.07 s  ClockTime = 1 s

Courant Number mean: 0 max: 0
Time = 25.285

PIMPLE: iteration 1
GAMG:  Solving for p, Initial residual = 0, Final residual = 0, No Iterations 0
time step continuity errors : sum local = 0, global = 0, cumulative = 0
smoothSolver:  Solving for A, Initial residual = 1.322342e-05, Final residual = 7.4580481e-12, No Iterations 1
smoothSolver:  Solving for B, Initial residual = 0, Final residual = 0, No Iterations 0
ExecutionTime = 1.08 s  ClockTime = 1 s

Courant Number mean: 0 max: 0
Time = 25.29

PIMPLE: iteration 1
GAMG:  Solving for p, Initial residual = 0, Final residual = 0, No Iterations 0
time step continuity errors : sum local = 0, global = 0, cumulative = 0
smoothSolver:  Solving for A, Initial residual = 1.322197e-05, Final residual = 7.4573794e-12, No Iterations 1
smoothSolver:  Solving for B, Initial residual = 0, Final residual = 0, No Iterations 0
ExecutionTime = 1.1 s  ClockTime = 1 s

Courant Number mean: 0 max: 0
Time = 25.295

PIMPLE: iteration 1
GAMG:  Solving for p, Initial residual = 0, Final residual = 0, No Iterations 0
time step continuity errors : sum local = 0, global = 0, cumulative = 0
smoothSolver:  Solving for A, Initial residual = 1.3220521e-05, Final residual = 7.4567081e-12, No Iterations 1
smoothSolver:  Solving for B, Initial residual = 0, Final residual = 0, No Iterations 0
ExecutionTime = 1.13 s  ClockTime = 1 s

Courant Number mean: 0 max: 0
Time = 25.3

PIMPLE: iteration 1
GAMG:  Solving for p, Initial residual = 0, Final residual = 0, No Iterations 0
time step continuity errors : sum local = 0, global = 0, cumulative = 0
smoothSolver:  Solving for A, Initial residual = 1.3219072e-05, Final residual = 7.4560346e-12, No Iterations 1
smoothSolver:  Solving for B, Initial residual = 0, Final residual = 0, No Iterations 0
ExecutionTime = 1.14 s  ClockTime = 1 s

Courant Number mean: 0 max: 0
Time = 25.305

PIMPLE: iteration 1
GAMG:  Solving for p, Initial residual = 0, Final residual = 0, No Iterations 0
time step continuity errors : sum local = 0, global = 0, cumulative = 0
smoothSolver:  Solving for A, Initial residual = 1.3217624e-05, Final residual = 7.4553599e-12, No Iterations 1
smoothSolver:  Solving for B, Initial residual = 0, Final residual = 0, No Iterations 0
ExecutionTime = 1.15 s  ClockTime = 1 s

Courant Number mean: 0 max: 0
Time = 25.31

PIMPLE: iteration 1
GAMG:  Solving for p, Initial residual = 0, Final residual = 0, No Iterations 0
time step continuity errors : sum local = 0, global = 0, cumulative = 0
smoothSolver:  Solving for A, Initial residual = 1.3216176e-05, Final residual = 7.4546897e-12, No Iterations 1
smoothSolver:  Solving for B, Initial residual = 0, Final residual = 0, No Iterations 0
ExecutionTime = 1.17 s  ClockTime = 1 s

Courant Number mean: 0 max: 0
Time = 25.315

PIMPLE: iteration 1
GAMG:  Solving for p, Initial residual = 0, Final residual = 0, No Iterations 0
time step continuity errors : sum local = 0, global = 0, cumulative = 0
smoothSolver:  Solving for A, Initial residual = 1.3214728e-05, Final residual = 7.4540192e-12, No Iterations 1
smoothSolver:  Solving for B, Initial residual = 0, Final residual = 0, No Iterations 0
ExecutionTime = 1.19 s  ClockTime = 1 s

Courant Number mean: 0 max: 0
Time = 25.32

PIMPLE: iteration 1
GAMG:  Solving for p, Initial residual = 0, Final residual = 0, No Iterations 0
time step continuity errors : sum local = 0, global = 0, cumulative = 0
smoothSolver:  Solving for A, Initial residual = 1.3213282e-05, Final residual = 7.4533433e-12, No Iterations 1
smoothSolver:  Solving for B, Initial residual = 0, Final residual = 0, No Iterations 0
ExecutionTime = 1.21 s  ClockTime = 1 s

Courant Number mean: 0 max: 0
Time = 25.325

PIMPLE: iteration 1
GAMG:  Solving for p, Initial residual = 0, Final residual = 0, No Iterations 0
time step continuity errors : sum local = 0, global = 0, cumulative = 0
smoothSolver:  Solving for A, Initial residual = 1.3211835e-05, Final residual = 7.4526755e-12, No Iterations 1
smoothSolver:  Solving for B, Initial residual = 0, Final residual = 0, No Iterations 0
ExecutionTime = 1.23 s  ClockTime = 1 s

Courant Number mean: 0 max: 0
Time = 25.33

PIMPLE: iteration 1
GAMG:  Solving for p, Initial residual = 0, Final residual = 0, No Iterations 0
time step continuity errors : sum local = 0, global = 0, cumulative = 0
smoothSolver:  Solving for A, Initial residual = 1.3210389e-05, Final residual = 7.4520021e-12, No Iterations 1
smoothSolver:  Solving for B, Initial residual = 0, Final residual = 0, No Iterations 0
ExecutionTime = 1.25 s  ClockTime = 1 s

Courant Number mean: 0 max: 0
Time = 25.335

PIMPLE: iteration 1
GAMG:  Solving for p, Initial residual = 0, Final residual = 0, No Iterations 0
time step continuity errors : sum local = 0, global = 0, cumulative = 0
smoothSolver:  Solving for A, Initial residual = 1.3208944e-05, Final residual = 7.4513264e-12, No Iterations 1
smoothSolver:  Solving for B, Initial residual = 0, Final residual = 0, No Iterations 0
ExecutionTime = 1.27 s  ClockTime = 1 s

Courant Number mean: 0 max: 0
Time = 25.34

PIMPLE: iteration 1
GAMG:  Solving for p, Initial residual = 0, Final residual = 0, No Iterations 0
time step continuity errors : sum local = 0, global = 0, cumulative = 0
smoothSolver:  Solving for A, Initial residual = 1.3207499e-05, Final residual = 7.4506552e-12, No Iterations 1
smoothSolver:  Solving for B, Initial residual = 0, Final residual = 0, No Iterations 0
ExecutionTime = 1.28 s  ClockTime = 1 s

Courant Number mean: 0 max: 0
Time = 25.345

PIMPLE: iteration 1
GAMG:  Solving for p, Initial residual = 0, Final residual = 0, No Iterations 0
time step continuity errors : sum local = 0, global = 0, cumulative = 0
smoothSolver:  Solving for A, Initial residual = 1.3206055e-05, Final residual = 7.4499858e-12, No Iterations 1
smoothSolver:  Solving for B, Initial residual = 0, Final residual = 0, No Iterations 0
ExecutionTime = 1.3 s  ClockTime = 1 s

Courant Number mean: 0 max: 0
Time = 25.35

PIMPLE: iteration 1
GAMG:  Solving for p, Initial residual = 0, Final residual = 0, No Iterations 0
time step continuity errors : sum local = 0, global = 0, cumulative = 0
smoothSolver:  Solving for A, Initial residual = 1.3204611e-05, Final residual = 7.4493123e-12, No Iterations 1
smoothSolver:  Solving for B, Initial residual = 0, Final residual = 0, No Iterations 0
ExecutionTime = 1.32 s  ClockTime = 1 s

Courant Number mean: 0 max: 0
Time = 25.355

PIMPLE: iteration 1
GAMG:  Solving for p, Initial residual = 0, Final residual = 0, No Iterations 0
time step continuity errors : sum local = 0, global = 0, cumulative = 0
smoothSolver:  Solving for A, Initial residual = 1.3203168e-05, Final residual = 7.4486468e-12, No Iterations 1
smoothSolver:  Solving for B, Initial residual = 0, Final residual = 0, No Iterations 0
ExecutionTime = 1.34 s  ClockTime = 1 s

Courant Number mean: 0 max: 0
Time = 25.36

PIMPLE: iteration 1
GAMG:  Solving for p, Initial residual = 0, Final residual = 0, No Iterations 0
time step continuity errors : sum local = 0, global = 0, cumulative = 0
smoothSolver:  Solving for A, Initial residual = 1.3201725e-05, Final residual = 7.4479775e-12, No Iterations 1
smoothSolver:  Solving for B, Initial residual = 0, Final residual = 0, No Iterations 0
ExecutionTime = 1.36 s  ClockTime = 1 s

Courant Number mean: 0 max: 0
Time = 25.365

PIMPLE: iteration 1
GAMG:  Solving for p, Initial residual = 0, Final residual = 0, No Iterations 0
time step continuity errors : sum local = 0, global = 0, cumulative = 0
smoothSolver:  Solving for A, Initial residual = 1.3200283e-05, Final residual = 7.4473057e-12, No Iterations 1
smoothSolver:  Solving for B, Initial residual = 0, Final residual = 0, No Iterations 0
ExecutionTime = 1.37 s  ClockTime = 1 s

Courant Number mean: 0 max: 0
Time = 25.37

PIMPLE: iteration 1
GAMG:  Solving for p, Initial residual = 0, Final residual = 0, No Iterations 0
time step continuity errors : sum local = 0, global = 0, cumulative = 0
smoothSolver:  Solving for A, Initial residual = 1.3198841e-05, Final residual = 7.446632e-12, No Iterations 1
smoothSolver:  Solving for B, Initial residual = 0, Final residual = 0, No Iterations 0
ExecutionTime = 1.39 s  ClockTime = 1 s

Courant Number mean: 0 max: 0
Time = 25.375

PIMPLE: iteration 1
GAMG:  Solving for p, Initial residual = 0, Final residual = 0, No Iterations 0
time step continuity errors : sum local = 0, global = 0, cumulative = 0
smoothSolver:  Solving for A, Initial residual = 1.31974e-05, Final residual = 7.4459636e-12, No Iterations 1
smoothSolver:  Solving for B, Initial residual = 0, Final residual = 0, No Iterations 0
ExecutionTime = 1.41 s  ClockTime = 1 s

Courant Number mean: 0 max: 0
Time = 25.38

PIMPLE: iteration 1
GAMG:  Solving for p, Initial residual = 0, Final residual = 0, No Iterations 0
time step continuity errors : sum local = 0, global = 0, cumulative = 0
smoothSolver:  Solving for A, Initial residual = 1.3195959e-05, Final residual = 7.4453001e-12, No Iterations 1
smoothSolver:  Solving for B, Initial residual = 0, Final residual = 0, No Iterations 0
ExecutionTime = 1.43 s  ClockTime = 1 s

Courant Number mean: 0 max: 0
Time = 25.385

PIMPLE: iteration 1
GAMG:  Solving for p, Initial residual = 0, Final residual = 0, No Iterations 0
time step continuity errors : sum local = 0, global = 0, cumulative = 0
smoothSolver:  Solving for A, Initial residual = 1.3194519e-05, Final residual = 7.4446293e-12, No Iterations 1
smoothSolver:  Solving for B, Initial residual = 0, Final residual = 0, No Iterations 0
ExecutionTime = 1.44 s  ClockTime = 1 s

Courant Number mean: 0 max: 0
Time = 25.39

PIMPLE: iteration 1
GAMG:  Solving for p, Initial residual = 0, Final residual = 0, No Iterations 0
time step continuity errors : sum local = 0, global = 0, cumulative = 0
smoothSolver:  Solving for A, Initial residual = 1.3193079e-05, Final residual = 7.4439542e-12, No Iterations 1
smoothSolver:  Solving for B, Initial residual = 0, Final residual = 0, No Iterations 0
ExecutionTime = 1.46 s  ClockTime = 1 s

Courant Number mean: 0 max: 0
Time = 25.395

PIMPLE: iteration 1
GAMG:  Solving for p, Initial residual = 0, Final residual = 0, No Iterations 0
time step continuity errors : sum local = 0, global = 0, cumulative = 0
smoothSolver:  Solving for A, Initial residual = 1.319164e-05, Final residual = 7.4432878e-12, No Iterations 1
smoothSolver:  Solving for B, Initial residual = 0, Final residual = 0, No Iterations 0
ExecutionTime = 1.48 s  ClockTime = 1 s

Courant Number mean: 0 max: 0
Time = 25.4

PIMPLE: iteration 1
GAMG:  Solving for p, Initial residual = 0, Final residual = 0, No Iterations 0
time step continuity errors : sum local = 0, global = 0, cumulative = 0
smoothSolver:  Solving for A, Initial residual = 1.3190202e-05, Final residual = 7.4426178e-12, No Iterations 1
smoothSolver:  Solving for B, Initial residual = 0, Final residual = 0, No Iterations 0
ExecutionTime = 1.5 s  ClockTime = 1 s

Courant Number mean: 0 max: 0
Time = 25.405

PIMPLE: iteration 1
GAMG:  Solving for p, Initial residual = 0, Final residual = 0, No Iterations 0
time step continuity errors : sum local = 0, global = 0, cumulative = 0
smoothSolver:  Solving for A, Initial residual = 1.3188763e-05, Final residual = 7.4419505e-12, No Iterations 1
smoothSolver:  Solving for B, Initial residual = 0, Final residual = 0, No Iterations 0
ExecutionTime = 1.52 s  ClockTime = 1 s

Courant Number mean: 0 max: 0
Time = 25.41

PIMPLE: iteration 1
GAMG:  Solving for p, Initial residual = 0, Final residual = 0, No Iterations 0
time step continuity errors : sum local = 0, global = 0, cumulative = 0
smoothSolver:  Solving for A, Initial residual = 1.3187326e-05, Final residual = 7.4412834e-12, No Iterations 1
smoothSolver:  Solving for B, Initial residual = 0, Final residual = 0, No Iterations 0
ExecutionTime = 1.54 s  ClockTime = 1 s

Courant Number mean: 0 max: 0
Time = 25.415

PIMPLE: iteration 1
GAMG:  Solving for p, Initial residual = 0, Final residual = 0, No Iterations 0
time step continuity errors : sum local = 0, global = 0, cumulative = 0
smoothSolver:  Solving for A, Initial residual = 1.3185889e-05, Final residual = 7.4406134e-12, No Iterations 1
smoothSolver:  Solving for B, Initial residual = 0, Final residual = 0, No Iterations 0
ExecutionTime = 1.55 s  ClockTime = 1 s

Courant Number mean: 0 max: 0
Time = 25.42

PIMPLE: iteration 1
GAMG:  Solving for p, Initial residual = 0, Final residual = 0, No Iterations 0
time step continuity errors : sum local = 0, global = 0, cumulative = 0
smoothSolver:  Solving for A, Initial residual = 1.3184452e-05, Final residual = 7.4399473e-12, No Iterations 1
smoothSolver:  Solving for B, Initial residual = 0, Final residual = 0, No Iterations 0
ExecutionTime = 1.57 s  ClockTime = 1 s

Courant Number mean: 0 max: 0
Time = 25.425

PIMPLE: iteration 1
GAMG:  Solving for p, Initial residual = 0, Final residual = 0, No Iterations 0
time step continuity errors : sum local = 0, global = 0, cumulative = 0
smoothSolver:  Solving for A, Initial residual = 1.3183016e-05, Final residual = 7.4392788e-12, No Iterations 1
smoothSolver:  Solving for B, Initial residual = 0, Final residual = 0, No Iterations 0
ExecutionTime = 1.59 s  ClockTime = 1 s

Courant Number mean: 0 max: 0
Time = 25.43

PIMPLE: iteration 1
GAMG:  Solving for p, Initial residual = 0, Final residual = 0, No Iterations 0
time step continuity errors : sum local = 0, global = 0, cumulative = 0
smoothSolver:  Solving for A, Initial residual = 1.318158e-05, Final residual = 7.4386104e-12, No Iterations 1
smoothSolver:  Solving for B, Initial residual = 0, Final residual = 0, No Iterations 0
ExecutionTime = 1.6 s  ClockTime = 1 s

Courant Number mean: 0 max: 0
Time = 25.435

PIMPLE: iteration 1
GAMG:  Solving for p, Initial residual = 0, Final residual = 0, No Iterations 0
time step continuity errors : sum local = 0, global = 0, cumulative = 0
smoothSolver:  Solving for A, Initial residual = 1.3180145e-05, Final residual = 7.4379404e-12, No Iterations 1
smoothSolver:  Solving for B, Initial residual = 0, Final residual = 0, No Iterations 0
ExecutionTime = 1.62 s  ClockTime = 1 s

Courant Number mean: 0 max: 0
Time = 25.44

PIMPLE: iteration 1
GAMG:  Solving for p, Initial residual = 0, Final residual = 0, No Iterations 0
time step continuity errors : sum local = 0, global = 0, cumulative = 0
smoothSolver:  Solving for A, Initial residual = 1.317871e-05, Final residual = 7.4372768e-12, No Iterations 1
smoothSolver:  Solving for B, Initial residual = 0, Final residual = 0, No Iterations 0
ExecutionTime = 1.64 s  ClockTime = 1 s

Courant Number mean: 0 max: 0
Time = 25.445

PIMPLE: iteration 1
GAMG:  Solving for p, Initial residual = 0, Final residual = 0, No Iterations 0
time step continuity errors : sum local = 0, global = 0, cumulative = 0
smoothSolver:  Solving for A, Initial residual = 1.3177276e-05, Final residual = 7.4366023e-12, No Iterations 1
smoothSolver:  Solving for B, Initial residual = 0, Final residual = 0, No Iterations 0
ExecutionTime = 1.65 s  ClockTime = 1 s

Courant Number mean: 0 max: 0
Time = 25.45

PIMPLE: iteration 1
GAMG:  Solving for p, Initial residual = 0, Final residual = 0, No Iterations 0
time step continuity errors : sum local = 0, global = 0, cumulative = 0
smoothSolver:  Solving for A, Initial residual = 1.3175843e-05, Final residual = 7.4359399e-12, No Iterations 1
smoothSolver:  Solving for B, Initial residual = 0, Final residual = 0, No Iterations 0
ExecutionTime = 1.68 s  ClockTime = 1 s

Courant Number mean: 0 max: 0
Time = 25.455

PIMPLE: iteration 1
GAMG:  Solving for p, Initial residual = 0, Final residual = 0, No Iterations 0
time step continuity errors : sum local = 0, global = 0, cumulative = 0
smoothSolver:  Solving for A, Initial residual = 1.317441e-05, Final residual = 7.4352728e-12, No Iterations 1
smoothSolver:  Solving for B, Initial residual = 0, Final residual = 0, No Iterations 0
ExecutionTime = 1.7 s  ClockTime = 1 s

Courant Number mean: 0 max: 0
Time = 25.46

PIMPLE: iteration 1
GAMG:  Solving for p, Initial residual = 0, Final residual = 0, No Iterations 0
time step continuity errors : sum local = 0, global = 0, cumulative = 0
smoothSolver:  Solving for A, Initial residual = 1.3172977e-05, Final residual = 7.4346089e-12, No Iterations 1
smoothSolver:  Solving for B, Initial residual = 0, Final residual = 0, No Iterations 0
ExecutionTime = 1.71 s  ClockTime = 1 s

Courant Number mean: 0 max: 0
Time = 25.465

PIMPLE: iteration 1
GAMG:  Solving for p, Initial residual = 0, Final residual = 0, No Iterations 0
time step continuity errors : sum local = 0, global = 0, cumulative = 0
smoothSolver:  Solving for A, Initial residual = 1.3171545e-05, Final residual = 7.4339391e-12, No Iterations 1
smoothSolver:  Solving for B, Initial residual = 0, Final residual = 0, No Iterations 0
ExecutionTime = 1.72 s  ClockTime = 1 s

Courant Number mean: 0 max: 0
Time = 25.47

PIMPLE: iteration 1
GAMG:  Solving for p, Initial residual = 0, Final residual = 0, No Iterations 0
time step continuity errors : sum local = 0, global = 0, cumulative = 0
smoothSolver:  Solving for A, Initial residual = 1.3170113e-05, Final residual = 7.4332746e-12, No Iterations 1
smoothSolver:  Solving for B, Initial residual = 0, Final residual = 0, No Iterations 0
ExecutionTime = 1.75 s  ClockTime = 1 s

Courant Number mean: 0 max: 0
Time = 25.475

PIMPLE: iteration 1
GAMG:  Solving for p, Initial residual = 0, Final residual = 0, No Iterations 0
time step continuity errors : sum local = 0, global = 0, cumulative = 0
smoothSolver:  Solving for A, Initial residual = 1.3168682e-05, Final residual = 7.4326089e-12, No Iterations 1
smoothSolver:  Solving for B, Initial residual = 0, Final residual = 0, No Iterations 0
ExecutionTime = 1.77 s  ClockTime = 1 s

Courant Number mean: 0 max: 0
Time = 25.48

PIMPLE: iteration 1
GAMG:  Solving for p, Initial residual = 0, Final residual = 0, No Iterations 0
time step continuity errors : sum local = 0, global = 0, cumulative = 0
smoothSolver:  Solving for A, Initial residual = 1.3167252e-05, Final residual = 7.4319466e-12, No Iterations 1
smoothSolver:  Solving for B, Initial residual = 0, Final residual = 0, No Iterations 0
ExecutionTime = 1.78 s  ClockTime = 1 s

Courant Number mean: 0 max: 0
Time = 25.485

PIMPLE: iteration 1
GAMG:  Solving for p, Initial residual = 0, Final residual = 0, No Iterations 0
time step continuity errors : sum local = 0, global = 0, cumulative = 0
smoothSolver:  Solving for A, Initial residual = 1.3165822e-05, Final residual = 7.4312786e-12, No Iterations 1
smoothSolver:  Solving for B, Initial residual = 0, Final residual = 0, No Iterations 0
ExecutionTime = 1.8 s  ClockTime = 1 s

Courant Number mean: 0 max: 0
Time = 25.49

PIMPLE: iteration 1
GAMG:  Solving for p, Initial residual = 0, Final residual = 0, No Iterations 0
time step continuity errors : sum local = 0, global = 0, cumulative = 0
smoothSolver:  Solving for A, Initial residual = 1.3164392e-05, Final residual = 7.4306124e-12, No Iterations 1
smoothSolver:  Solving for B, Initial residual = 0, Final residual = 0, No Iterations 0
ExecutionTime = 1.82 s  ClockTime = 2 s

Courant Number mean: 0 max: 0
Time = 25.495

PIMPLE: iteration 1
GAMG:  Solving for p, Initial residual = 0, Final residual = 0, No Iterations 0
time step continuity errors : sum local = 0, global = 0, cumulative = 0
smoothSolver:  Solving for A, Initial residual = 1.3162963e-05, Final residual = 7.4299489e-12, No Iterations 1
smoothSolver:  Solving for B, Initial residual = 0, Final residual = 0, No Iterations 0
ExecutionTime = 1.83 s  ClockTime = 2 s

Courant Number mean: 0 max: 0
Time = 25.5

PIMPLE: iteration 1
GAMG:  Solving for p, Initial residual = 0, Final residual = 0, No Iterations 0
time step continuity errors : sum local = 0, global = 0, cumulative = 0
smoothSolver:  Solving for A, Initial residual = 1.3161535e-05, Final residual = 7.4292878e-12, No Iterations 1
smoothSolver:  Solving for B, Initial residual = 0, Final residual = 0, No Iterations 0
ExecutionTime = 1.85 s  ClockTime = 2 s

Courant Number mean: 0 max: 0
Time = 25.505

PIMPLE: iteration 1
GAMG:  Solving for p, Initial residual = 0, Final residual = 0, No Iterations 0
time step continuity errors : sum local = 0, global = 0, cumulative = 0
smoothSolver:  Solving for A, Initial residual = 1.3160106e-05, Final residual = 7.4286163e-12, No Iterations 1
smoothSolver:  Solving for B, Initial residual = 0, Final residual = 0, No Iterations 0
ExecutionTime = 1.87 s  ClockTime = 2 s

Courant Number mean: 0 max: 0
Time = 25.51

PIMPLE: iteration 1
GAMG:  Solving for p, Initial residual = 0, Final residual = 0, No Iterations 0
time step continuity errors : sum local = 0, global = 0, cumulative = 0
smoothSolver:  Solving for A, Initial residual = 1.3158679e-05, Final residual = 7.4279561e-12, No Iterations 1
smoothSolver:  Solving for B, Initial residual = 0, Final residual = 0, No Iterations 0
ExecutionTime = 1.89 s  ClockTime = 2 s

Courant Number mean: 0 max: 0
Time = 25.515

PIMPLE: iteration 1
GAMG:  Solving for p, Initial residual = 0, Final residual = 0, No Iterations 0
time step continuity errors : sum local = 0, global = 0, cumulative = 0
smoothSolver:  Solving for A, Initial residual = 1.3157252e-05, Final residual = 7.4272905e-12, No Iterations 1
smoothSolver:  Solving for B, Initial residual = 0, Final residual = 0, No Iterations 0
ExecutionTime = 1.9 s  ClockTime = 2 s

Courant Number mean: 0 max: 0
Time = 25.52

PIMPLE: iteration 1
GAMG:  Solving for p, Initial residual = 0, Final residual = 0, No Iterations 0
time step continuity errors : sum local = 0, global = 0, cumulative = 0
smoothSolver:  Solving for A, Initial residual = 1.3155825e-05, Final residual = 7.4266254e-12, No Iterations 1
smoothSolver:  Solving for B, Initial residual = 0, Final residual = 0, No Iterations 0
ExecutionTime = 1.93 s  ClockTime = 2 s

Courant Number mean: 0 max: 0
Time = 25.525

PIMPLE: iteration 1
GAMG:  Solving for p, Initial residual = 0, Final residual = 0, No Iterations 0
time step continuity errors : sum local = 0, global = 0, cumulative = 0
smoothSolver:  Solving for A, Initial residual = 1.3154399e-05, Final residual = 7.4259602e-12, No Iterations 1
smoothSolver:  Solving for B, Initial residual = 0, Final residual = 0, No Iterations 0
ExecutionTime = 1.94 s  ClockTime = 2 s

Courant Number mean: 0 max: 0
Time = 25.53

PIMPLE: iteration 1
GAMG:  Solving for p, Initial residual = 0, Final residual = 0, No Iterations 0
time step continuity errors : sum local = 0, global = 0, cumulative = 0
smoothSolver:  Solving for A, Initial residual = 1.3152974e-05, Final residual = 7.4253005e-12, No Iterations 1
smoothSolver:  Solving for B, Initial residual = 0, Final residual = 0, No Iterations 0
ExecutionTime = 1.96 s  ClockTime = 2 s

Courant Number mean: 0 max: 0
Time = 25.535

PIMPLE: iteration 1
GAMG:  Solving for p, Initial residual = 0, Final residual = 0, No Iterations 0
time step continuity errors : sum local = 0, global = 0, cumulative = 0
smoothSolver:  Solving for A, Initial residual = 1.3151549e-05, Final residual = 7.4246351e-12, No Iterations 1
smoothSolver:  Solving for B, Initial residual = 0, Final residual = 0, No Iterations 0
ExecutionTime = 1.98 s  ClockTime = 2 s

Courant Number mean: 0 max: 0
Time = 25.54

PIMPLE: iteration 1
GAMG:  Solving for p, Initial residual = 0, Final residual = 0, No Iterations 0
time step continuity errors : sum local = 0, global = 0, cumulative = 0
smoothSolver:  Solving for A, Initial residual = 1.3150124e-05, Final residual = 7.4239734e-12, No Iterations 1
smoothSolver:  Solving for B, Initial residual = 0, Final residual = 0, No Iterations 0
ExecutionTime = 1.99 s  ClockTime = 2 s

Courant Number mean: 0 max: 0
Time = 25.545

PIMPLE: iteration 1
GAMG:  Solving for p, Initial residual = 0, Final residual = 0, No Iterations 0
time step continuity errors : sum local = 0, global = 0, cumulative = 0
smoothSolver:  Solving for A, Initial residual = 1.31487e-05, Final residual = 7.4233097e-12, No Iterations 1
smoothSolver:  Solving for B, Initial residual = 0, Final residual = 0, No Iterations 0
ExecutionTime = 2.01 s  ClockTime = 2 s

Courant Number mean: 0 max: 0
Time = 25.55

PIMPLE: iteration 1
GAMG:  Solving for p, Initial residual = 0, Final residual = 0, No Iterations 0
time step continuity errors : sum local = 0, global = 0, cumulative = 0
smoothSolver:  Solving for A, Initial residual = 1.3147277e-05, Final residual = 7.4226463e-12, No Iterations 1
smoothSolver:  Solving for B, Initial residual = 0, Final residual = 0, No Iterations 0
ExecutionTime = 2.03 s  ClockTime = 2 s

Courant Number mean: 0 max: 0
Time = 25.555

PIMPLE: iteration 1
GAMG:  Solving for p, Initial residual = 0, Final residual = 0, No Iterations 0
time step continuity errors : sum local = 0, global = 0, cumulative = 0
smoothSolver:  Solving for A, Initial residual = 1.3145854e-05, Final residual = 7.4219853e-12, No Iterations 1
smoothSolver:  Solving for B, Initial residual = 0, Final residual = 0, No Iterations 0
ExecutionTime = 2.05 s  ClockTime = 2 s

Courant Number mean: 0 max: 0
Time = 25.56

PIMPLE: iteration 1
GAMG:  Solving for p, Initial residual = 0, Final residual = 0, No Iterations 0
time step continuity errors : sum local = 0, global = 0, cumulative = 0
smoothSolver:  Solving for A, Initial residual = 1.3144431e-05, Final residual = 7.4213211e-12, No Iterations 1
smoothSolver:  Solving for B, Initial residual = 0, Final residual = 0, No Iterations 0
ExecutionTime = 2.07 s  ClockTime = 2 s

Courant Number mean: 0 max: 0
Time = 25.565

PIMPLE: iteration 1
GAMG:  Solving for p, Initial residual = 0, Final residual = 0, No Iterations 0
time step continuity errors : sum local = 0, global = 0, cumulative = 0
smoothSolver:  Solving for A, Initial residual = 1.3143009e-05, Final residual = 7.4206572e-12, No Iterations 1
smoothSolver:  Solving for B, Initial residual = 0, Final residual = 0, No Iterations 0
ExecutionTime = 2.09 s  ClockTime = 2 s

Courant Number mean: 0 max: 0
Time = 25.57

PIMPLE: iteration 1
GAMG:  Solving for p, Initial residual = 0, Final residual = 0, No Iterations 0
time step continuity errors : sum local = 0, global = 0, cumulative = 0
smoothSolver:  Solving for A, Initial residual = 1.3141587e-05, Final residual = 7.4199952e-12, No Iterations 1
smoothSolver:  Solving for B, Initial residual = 0, Final residual = 0, No Iterations 0
ExecutionTime = 2.1 s  ClockTime = 2 s

Courant Number mean: 0 max: 0
Time = 25.575

PIMPLE: iteration 1
GAMG:  Solving for p, Initial residual = 0, Final residual = 0, No Iterations 0
time step continuity errors : sum local = 0, global = 0, cumulative = 0
smoothSolver:  Solving for A, Initial residual = 1.3140166e-05, Final residual = 7.4193357e-12, No Iterations 1
smoothSolver:  Solving for B, Initial residual = 0, Final residual = 0, No Iterations 0
ExecutionTime = 2.12 s  ClockTime = 2 s

Courant Number mean: 0 max: 0
Time = 25.58

PIMPLE: iteration 1
GAMG:  Solving for p, Initial residual = 0, Final residual = 0, No Iterations 0
time step continuity errors : sum local = 0, global = 0, cumulative = 0
smoothSolver:  Solving for A, Initial residual = 1.3138746e-05, Final residual = 7.418672e-12, No Iterations 1
smoothSolver:  Solving for B, Initial residual = 0, Final residual = 0, No Iterations 0
ExecutionTime = 2.14 s  ClockTime = 2 s

Courant Number mean: 0 max: 0
Time = 25.585

PIMPLE: iteration 1
GAMG:  Solving for p, Initial residual = 0, Final residual = 0, No Iterations 0
time step continuity errors : sum local = 0, global = 0, cumulative = 0
smoothSolver:  Solving for A, Initial residual = 1.3137326e-05, Final residual = 7.4180093e-12, No Iterations 1
smoothSolver:  Solving for B, Initial residual = 0, Final residual = 0, No Iterations 0
ExecutionTime = 2.16 s  ClockTime = 2 s

Courant Number mean: 0 max: 0
Time = 25.59

PIMPLE: iteration 1
GAMG:  Solving for p, Initial residual = 0, Final residual = 0, No Iterations 0
time step continuity errors : sum local = 0, global = 0, cumulative = 0
smoothSolver:  Solving for A, Initial residual = 1.3135906e-05, Final residual = 7.4173495e-12, No Iterations 1
smoothSolver:  Solving for B, Initial residual = 0, Final residual = 0, No Iterations 0
ExecutionTime = 2.18 s  ClockTime = 2 s

Courant Number mean: 0 max: 0
Time = 25.595

PIMPLE: iteration 1
GAMG:  Solving for p, Initial residual = 0, Final residual = 0, No Iterations 0
time step continuity errors : sum local = 0, global = 0, cumulative = 0
smoothSolver:  Solving for A, Initial residual = 1.3134487e-05, Final residual = 7.4166905e-12, No Iterations 1
smoothSolver:  Solving for B, Initial residual = 0, Final residual = 0, No Iterations 0
ExecutionTime = 2.19 s  ClockTime = 2 s

Courant Number mean: 0 max: 0
Time = 25.6

PIMPLE: iteration 1
GAMG:  Solving for p, Initial residual = 0, Final residual = 0, No Iterations 0
time step continuity errors : sum local = 0, global = 0, cumulative = 0
smoothSolver:  Solving for A, Initial residual = 1.3133069e-05, Final residual = 7.4160274e-12, No Iterations 1
smoothSolver:  Solving for B, Initial residual = 0, Final residual = 0, No Iterations 0
ExecutionTime = 2.2 s  ClockTime = 2 s

Courant Number mean: 0 max: 0
Time = 25.605

PIMPLE: iteration 1
GAMG:  Solving for p, Initial residual = 0, Final residual = 0, No Iterations 0
time step continuity errors : sum local = 0, global = 0, cumulative = 0
smoothSolver:  Solving for A, Initial residual = 1.3131651e-05, Final residual = 7.4153642e-12, No Iterations 1
smoothSolver:  Solving for B, Initial residual = 0, Final residual = 0, No Iterations 0
ExecutionTime = 2.22 s  ClockTime = 2 s

Courant Number mean: 0 max: 0
Time = 25.61

PIMPLE: iteration 1
GAMG:  Solving for p, Initial residual = 0, Final residual = 0, No Iterations 0
time step continuity errors : sum local = 0, global = 0, cumulative = 0
smoothSolver:  Solving for A, Initial residual = 1.3130233e-05, Final residual = 7.4147049e-12, No Iterations 1
smoothSolver:  Solving for B, Initial residual = 0, Final residual = 0, No Iterations 0
ExecutionTime = 2.24 s  ClockTime = 2 s

Courant Number mean: 0 max: 0
Time = 25.615

PIMPLE: iteration 1
GAMG:  Solving for p, Initial residual = 0, Final residual = 0, No Iterations 0
time step continuity errors : sum local = 0, global = 0, cumulative = 0
smoothSolver:  Solving for A, Initial residual = 1.3128816e-05, Final residual = 7.4140418e-12, No Iterations 1
smoothSolver:  Solving for B, Initial residual = 0, Final residual = 0, No Iterations 0
ExecutionTime = 2.26 s  ClockTime = 2 s

Courant Number mean: 0 max: 0
Time = 25.62

PIMPLE: iteration 1
GAMG:  Solving for p, Initial residual = 0, Final residual = 0, No Iterations 0
time step continuity errors : sum local = 0, global = 0, cumulative = 0
smoothSolver:  Solving for A, Initial residual = 1.31274e-05, Final residual = 7.4133847e-12, No Iterations 1
smoothSolver:  Solving for B, Initial residual = 0, Final residual = 0, No Iterations 0
ExecutionTime = 2.29 s  ClockTime = 2 s

Courant Number mean: 0 max: 0
Time = 25.625

PIMPLE: iteration 1
GAMG:  Solving for p, Initial residual = 0, Final residual = 0, No Iterations 0
time step continuity errors : sum local = 0, global = 0, cumulative = 0
smoothSolver:  Solving for A, Initial residual = 1.3125984e-05, Final residual = 7.4127239e-12, No Iterations 1
smoothSolver:  Solving for B, Initial residual = 0, Final residual = 0, No Iterations 0
ExecutionTime = 2.3 s  ClockTime = 2 s

Courant Number mean: 0 max: 0
Time = 25.63

PIMPLE: iteration 1
GAMG:  Solving for p, Initial residual = 0, Final residual = 0, No Iterations 0
time step continuity errors : sum local = 0, global = 0, cumulative = 0
smoothSolver:  Solving for A, Initial residual = 1.3124568e-05, Final residual = 7.4120698e-12, No Iterations 1
smoothSolver:  Solving for B, Initial residual = 0, Final residual = 0, No Iterations 0
ExecutionTime = 2.32 s  ClockTime = 2 s

Courant Number mean: 0 max: 0
Time = 25.635

PIMPLE: iteration 1
GAMG:  Solving for p, Initial residual = 0, Final residual = 0, No Iterations 0
time step continuity errors : sum local = 0, global = 0, cumulative = 0
smoothSolver:  Solving for A, Initial residual = 1.3123153e-05, Final residual = 7.4114072e-12, No Iterations 1
smoothSolver:  Solving for B, Initial residual = 0, Final residual = 0, No Iterations 0
ExecutionTime = 2.34 s  ClockTime = 2 s

Courant Number mean: 0 max: 0
Time = 25.64

PIMPLE: iteration 1
GAMG:  Solving for p, Initial residual = 0, Final residual = 0, No Iterations 0
time step continuity errors : sum local = 0, global = 0, cumulative = 0
smoothSolver:  Solving for A, Initial residual = 1.3121738e-05, Final residual = 7.4107503e-12, No Iterations 1
smoothSolver:  Solving for B, Initial residual = 0, Final residual = 0, No Iterations 0
ExecutionTime = 2.35 s  ClockTime = 2 s

Courant Number mean: 0 max: 0
Time = 25.645

PIMPLE: iteration 1
GAMG:  Solving for p, Initial residual = 0, Final residual = 0, No Iterations 0
time step continuity errors : sum local = 0, global = 0, cumulative = 0
smoothSolver:  Solving for A, Initial residual = 1.3120324e-05, Final residual = 7.41009e-12, No Iterations 1
smoothSolver:  Solving for B, Initial residual = 0, Final residual = 0, No Iterations 0
ExecutionTime = 2.38 s  ClockTime = 2 s

Courant Number mean: 0 max: 0
Time = 25.65

PIMPLE: iteration 1
GAMG:  Solving for p, Initial residual = 0, Final residual = 0, No Iterations 0
time step continuity errors : sum local = 0, global = 0, cumulative = 0
smoothSolver:  Solving for A, Initial residual = 1.3118911e-05, Final residual = 7.4094285e-12, No Iterations 1
smoothSolver:  Solving for B, Initial residual = 0, Final residual = 0, No Iterations 0
ExecutionTime = 2.4 s  ClockTime = 2 s

Courant Number mean: 0 max: 0
Time = 25.655

PIMPLE: iteration 1
GAMG:  Solving for p, Initial residual = 0, Final residual = 0, No Iterations 0
time step continuity errors : sum local = 0, global = 0, cumulative = 0
smoothSolver:  Solving for A, Initial residual = 1.3117498e-05, Final residual = 7.4087691e-12, No Iterations 1
smoothSolver:  Solving for B, Initial residual = 0, Final residual = 0, No Iterations 0
ExecutionTime = 2.41 s  ClockTime = 2 s

Courant Number mean: 0 max: 0
Time = 25.66

PIMPLE: iteration 1
GAMG:  Solving for p, Initial residual = 0, Final residual = 0, No Iterations 0
time step continuity errors : sum local = 0, global = 0, cumulative = 0
smoothSolver:  Solving for A, Initial residual = 1.3116085e-05, Final residual = 7.408115e-12, No Iterations 1
smoothSolver:  Solving for B, Initial residual = 0, Final residual = 0, No Iterations 0
ExecutionTime = 2.42 s  ClockTime = 2 s

Courant Number mean: 0 max: 0
Time = 25.665

PIMPLE: iteration 1
GAMG:  Solving for p, Initial residual = 0, Final residual = 0, No Iterations 0
time step continuity errors : sum local = 0, global = 0, cumulative = 0
smoothSolver:  Solving for A, Initial residual = 1.3114673e-05, Final residual = 7.4074534e-12, No Iterations 1
smoothSolver:  Solving for B, Initial residual = 0, Final residual = 0, No Iterations 0
ExecutionTime = 2.45 s  ClockTime = 2 s

Courant Number mean: 0 max: 0
Time = 25.67

PIMPLE: iteration 1
GAMG:  Solving for p, Initial residual = 0, Final residual = 0, No Iterations 0
time step continuity errors : sum local = 0, global = 0, cumulative = 0
smoothSolver:  Solving for A, Initial residual = 1.3113261e-05, Final residual = 7.406797e-12, No Iterations 1
smoothSolver:  Solving for B, Initial residual = 0, Final residual = 0, No Iterations 0
ExecutionTime = 2.47 s  ClockTime = 2 s

Courant Number mean: 0 max: 0
Time = 25.675

PIMPLE: iteration 1
GAMG:  Solving for p, Initial residual = 0, Final residual = 0, No Iterations 0
time step continuity errors : sum local = 0, global = 0, cumulative = 0
smoothSolver:  Solving for A, Initial residual = 1.311185e-05, Final residual = 7.4061408e-12, No Iterations 1
smoothSolver:  Solving for B, Initial residual = 0, Final residual = 0, No Iterations 0
ExecutionTime = 2.48 s  ClockTime = 2 s

Courant Number mean: 0 max: 0
Time = 25.68

PIMPLE: iteration 1
GAMG:  Solving for p, Initial residual = 0, Final residual = 0, No Iterations 0
time step continuity errors : sum local = 0, global = 0, cumulative = 0
smoothSolver:  Solving for A, Initial residual = 1.311044e-05, Final residual = 7.4054806e-12, No Iterations 1
smoothSolver:  Solving for B, Initial residual = 0, Final residual = 0, No Iterations 0
ExecutionTime = 2.5 s  ClockTime = 2 s

Courant Number mean: 0 max: 0
Time = 25.685

PIMPLE: iteration 1
GAMG:  Solving for p, Initial residual = 0, Final residual = 0, No Iterations 0
time step continuity errors : sum local = 0, global = 0, cumulative = 0
smoothSolver:  Solving for A, Initial residual = 1.310903e-05, Final residual = 7.4048226e-12, No Iterations 1
smoothSolver:  Solving for B, Initial residual = 0, Final residual = 0, No Iterations 0
ExecutionTime = 2.51 s  ClockTime = 2 s

Courant Number mean: 0 max: 0
Time = 25.69

PIMPLE: iteration 1
GAMG:  Solving for p, Initial residual = 0, Final residual = 0, No Iterations 0
time step continuity errors : sum local = 0, global = 0, cumulative = 0
smoothSolver:  Solving for A, Initial residual = 1.310762e-05, Final residual = 7.4041656e-12, No Iterations 1
smoothSolver:  Solving for B, Initial residual = 0, Final residual = 0, No Iterations 0
ExecutionTime = 2.54 s  ClockTime = 2 s

Courant Number mean: 0 max: 0
Time = 25.695

PIMPLE: iteration 1
GAMG:  Solving for p, Initial residual = 0, Final residual = 0, No Iterations 0
time step continuity errors : sum local = 0, global = 0, cumulative = 0
smoothSolver:  Solving for A, Initial residual = 1.3106211e-05, Final residual = 7.4035045e-12, No Iterations 1
smoothSolver:  Solving for B, Initial residual = 0, Final residual = 0, No Iterations 0
ExecutionTime = 2.56 s  ClockTime = 2 s

Courant Number mean: 0 max: 0
Time = 25.7

PIMPLE: iteration 1
GAMG:  Solving for p, Initial residual = 0, Final residual = 0, No Iterations 0
time step continuity errors : sum local = 0, global = 0, cumulative = 0
smoothSolver:  Solving for A, Initial residual = 1.3104802e-05, Final residual = 7.4028577e-12, No Iterations 1
smoothSolver:  Solving for B, Initial residual = 0, Final residual = 0, No Iterations 0
ExecutionTime = 2.58 s  ClockTime = 2 s

Courant Number mean: 0 max: 0
Time = 25.705

PIMPLE: iteration 1
GAMG:  Solving for p, Initial residual = 0, Final residual = 0, No Iterations 0
time step continuity errors : sum local = 0, global = 0, cumulative = 0
smoothSolver:  Solving for A, Initial residual = 1.3103394e-05, Final residual = 7.4021974e-12, No Iterations 1
smoothSolver:  Solving for B, Initial residual = 0, Final residual = 0, No Iterations 0
ExecutionTime = 2.59 s  ClockTime = 2 s

Courant Number mean: 0 max: 0
Time = 25.71

PIMPLE: iteration 1
GAMG:  Solving for p, Initial residual = 0, Final residual = 0, No Iterations 0
time step continuity errors : sum local = 0, global = 0, cumulative = 0
smoothSolver:  Solving for A, Initial residual = 1.3101986e-05, Final residual = 7.4015397e-12, No Iterations 1
smoothSolver:  Solving for B, Initial residual = 0, Final residual = 0, No Iterations 0
ExecutionTime = 2.61 s  ClockTime = 2 s

Courant Number mean: 0 max: 0
Time = 25.715

PIMPLE: iteration 1
GAMG:  Solving for p, Initial residual = 0, Final residual = 0, No Iterations 0
time step continuity errors : sum local = 0, global = 0, cumulative = 0
smoothSolver:  Solving for A, Initial residual = 1.3100579e-05, Final residual = 7.4008854e-12, No Iterations 1
smoothSolver:  Solving for B, Initial residual = 0, Final residual = 0, No Iterations 0
ExecutionTime = 2.63 s  ClockTime = 2 s

Courant Number mean: 0 max: 0
Time = 25.72

PIMPLE: iteration 1
GAMG:  Solving for p, Initial residual = 0, Final residual = 0, No Iterations 0
time step continuity errors : sum local = 0, global = 0, cumulative = 0
smoothSolver:  Solving for A, Initial residual = 1.3099173e-05, Final residual = 7.4002276e-12, No Iterations 1
smoothSolver:  Solving for B, Initial residual = 0, Final residual = 0, No Iterations 0
ExecutionTime = 2.65 s  ClockTime = 2 s

Courant Number mean: 0 max: 0
Time = 25.725

PIMPLE: iteration 1
GAMG:  Solving for p, Initial residual = 0, Final residual = 0, No Iterations 0
time step continuity errors : sum local = 0, global = 0, cumulative = 0
smoothSolver:  Solving for A, Initial residual = 1.3097766e-05, Final residual = 7.3995684e-12, No Iterations 1
smoothSolver:  Solving for B, Initial residual = 0, Final residual = 0, No Iterations 0
ExecutionTime = 2.67 s  ClockTime = 2 s

Courant Number mean: 0 max: 0
Time = 25.73

PIMPLE: iteration 1
GAMG:  Solving for p, Initial residual = 0, Final residual = 0, No Iterations 0
time step continuity errors : sum local = 0, global = 0, cumulative = 0
smoothSolver:  Solving for A, Initial residual = 1.3096361e-05, Final residual = 7.3989147e-12, No Iterations 1
smoothSolver:  Solving for B, Initial residual = 0, Final residual = 0, No Iterations 0
ExecutionTime = 2.68 s  ClockTime = 2 s

Courant Number mean: 0 max: 0
Time = 25.735

PIMPLE: iteration 1
GAMG:  Solving for p, Initial residual = 0, Final residual = 0, No Iterations 0
time step continuity errors : sum local = 0, global = 0, cumulative = 0
smoothSolver:  Solving for A, Initial residual = 1.3094956e-05, Final residual = 7.3982577e-12, No Iterations 1
smoothSolver:  Solving for B, Initial residual = 0, Final residual = 0, No Iterations 0
ExecutionTime = 2.7 s  ClockTime = 2 s

Courant Number mean: 0 max: 0
Time = 25.74

PIMPLE: iteration 1
GAMG:  Solving for p, Initial residual = 0, Final residual = 0, No Iterations 0
time step continuity errors : sum local = 0, global = 0, cumulative = 0
smoothSolver:  Solving for A, Initial residual = 1.3093551e-05, Final residual = 7.3976054e-12, No Iterations 1
smoothSolver:  Solving for B, Initial residual = 0, Final residual = 0, No Iterations 0
ExecutionTime = 2.71 s  ClockTime = 2 s

Courant Number mean: 0 max: 0
Time = 25.745

PIMPLE: iteration 1
GAMG:  Solving for p, Initial residual = 0, Final residual = 0, No Iterations 0
time step continuity errors : sum local = 0, global = 0, cumulative = 0
smoothSolver:  Solving for A, Initial residual = 1.3092147e-05, Final residual = 7.396949e-12, No Iterations 1
smoothSolver:  Solving for B, Initial residual = 0, Final residual = 0, No Iterations 0
ExecutionTime = 2.74 s  ClockTime = 2 s

Courant Number mean: 0 max: 0
Time = 25.75

PIMPLE: iteration 1
GAMG:  Solving for p, Initial residual = 0, Final residual = 0, No Iterations 0
time step continuity errors : sum local = 0, global = 0, cumulative = 0
smoothSolver:  Solving for A, Initial residual = 1.3090743e-05, Final residual = 7.3962937e-12, No Iterations 1
smoothSolver:  Solving for B, Initial residual = 0, Final residual = 0, No Iterations 0
ExecutionTime = 2.75 s  ClockTime = 2 s

Courant Number mean: 0 max: 0
Time = 25.755

PIMPLE: iteration 1
GAMG:  Solving for p, Initial residual = 0, Final residual = 0, No Iterations 0
time step continuity errors : sum local = 0, global = 0, cumulative = 0
smoothSolver:  Solving for A, Initial residual = 1.308934e-05, Final residual = 7.3956385e-12, No Iterations 1
smoothSolver:  Solving for B, Initial residual = 0, Final residual = 0, No Iterations 0
ExecutionTime = 2.77 s  ClockTime = 2 s

Courant Number mean: 0 max: 0
Time = 25.76

PIMPLE: iteration 1
GAMG:  Solving for p, Initial residual = 0, Final residual = 0, No Iterations 0
time step continuity errors : sum local = 0, global = 0, cumulative = 0
smoothSolver:  Solving for A, Initial residual = 1.3087937e-05, Final residual = 7.3949814e-12, No Iterations 1
smoothSolver:  Solving for B, Initial residual = 0, Final residual = 0, No Iterations 0
ExecutionTime = 2.79 s  ClockTime = 2 s

Courant Number mean: 0 max: 0
Time = 25.765

PIMPLE: iteration 1
GAMG:  Solving for p, Initial residual = 0, Final residual = 0, No Iterations 0
time step continuity errors : sum local = 0, global = 0, cumulative = 0
smoothSolver:  Solving for A, Initial residual = 1.3086535e-05, Final residual = 7.3943327e-12, No Iterations 1
smoothSolver:  Solving for B, Initial residual = 0, Final residual = 0, No Iterations 0
ExecutionTime = 2.81 s  ClockTime = 2 s

Courant Number mean: 0 max: 0
Time = 25.77

PIMPLE: iteration 1
GAMG:  Solving for p, Initial residual = 0, Final residual = 0, No Iterations 0
time step continuity errors : sum local = 0, global = 0, cumulative = 0
smoothSolver:  Solving for A, Initial residual = 1.3085133e-05, Final residual = 7.3936734e-12, No Iterations 1
smoothSolver:  Solving for B, Initial residual = 0, Final residual = 0, No Iterations 0
ExecutionTime = 2.83 s  ClockTime = 3 s

Courant Number mean: 0 max: 0
Time = 25.775

PIMPLE: iteration 1
GAMG:  Solving for p, Initial residual = 0, Final residual = 0, No Iterations 0
time step continuity errors : sum local = 0, global = 0, cumulative = 0
smoothSolver:  Solving for A, Initial residual = 1.3083732e-05, Final residual = 7.393021e-12, No Iterations 1
smoothSolver:  Solving for B, Initial residual = 0, Final residual = 0, No Iterations 0
ExecutionTime = 2.85 s  ClockTime = 3 s

Courant Number mean: 0 max: 0
Time = 25.78

PIMPLE: iteration 1
GAMG:  Solving for p, Initial residual = 0, Final residual = 0, No Iterations 0
time step continuity errors : sum local = 0, global = 0, cumulative = 0
smoothSolver:  Solving for A, Initial residual = 1.3082331e-05, Final residual = 7.3923711e-12, No Iterations 1
smoothSolver:  Solving for B, Initial residual = 0, Final residual = 0, No Iterations 0
ExecutionTime = 2.86 s  ClockTime = 3 s

Courant Number mean: 0 max: 0
Time = 25.785

PIMPLE: iteration 1
GAMG:  Solving for p, Initial residual = 0, Final residual = 0, No Iterations 0
time step continuity errors : sum local = 0, global = 0, cumulative = 0
smoothSolver:  Solving for A, Initial residual = 1.3080931e-05, Final residual = 7.3917175e-12, No Iterations 1
smoothSolver:  Solving for B, Initial residual = 0, Final residual = 0, No Iterations 0
ExecutionTime = 2.88 s  ClockTime = 3 s

Courant Number mean: 0 max: 0
Time = 25.79

PIMPLE: iteration 1
GAMG:  Solving for p, Initial residual = 0, Final residual = 0, No Iterations 0
time step continuity errors : sum local = 0, global = 0, cumulative = 0
smoothSolver:  Solving for A, Initial residual = 1.3079531e-05, Final residual = 7.3910606e-12, No Iterations 1
smoothSolver:  Solving for B, Initial residual = 0, Final residual = 0, No Iterations 0
ExecutionTime = 2.89 s  ClockTime = 3 s

Courant Number mean: 0 max: 0
Time = 25.795

PIMPLE: iteration 1
GAMG:  Solving for p, Initial residual = 0, Final residual = 0, No Iterations 0
time step continuity errors : sum local = 0, global = 0, cumulative = 0
smoothSolver:  Solving for A, Initial residual = 1.3078131e-05, Final residual = 7.3904056e-12, No Iterations 1
smoothSolver:  Solving for B, Initial residual = 0, Final residual = 0, No Iterations 0
ExecutionTime = 2.91 s  ClockTime = 3 s

Courant Number mean: 0 max: 0
Time = 25.8

PIMPLE: iteration 1
GAMG:  Solving for p, Initial residual = 0, Final residual = 0, No Iterations 0
time step continuity errors : sum local = 0, global = 0, cumulative = 0
smoothSolver:  Solving for A, Initial residual = 1.3076733e-05, Final residual = 7.389754e-12, No Iterations 1
smoothSolver:  Solving for B, Initial residual = 0, Final residual = 0, No Iterations 0
ExecutionTime = 2.93 s  ClockTime = 3 s

Courant Number mean: 0 max: 0
Time = 25.805

PIMPLE: iteration 1
GAMG:  Solving for p, Initial residual = 0, Final residual = 0, No Iterations 0
time step continuity errors : sum local = 0, global = 0, cumulative = 0
smoothSolver:  Solving for A, Initial residual = 1.3075334e-05, Final residual = 7.3891023e-12, No Iterations 1
smoothSolver:  Solving for B, Initial residual = 0, Final residual = 0, No Iterations 0
ExecutionTime = 2.96 s  ClockTime = 3 s

Courant Number mean: 0 max: 0
Time = 25.81

PIMPLE: iteration 1
GAMG:  Solving for p, Initial residual = 0, Final residual = 0, No Iterations 0
time step continuity errors : sum local = 0, global = 0, cumulative = 0
smoothSolver:  Solving for A, Initial residual = 1.3073936e-05, Final residual = 7.3884524e-12, No Iterations 1
smoothSolver:  Solving for B, Initial residual = 0, Final residual = 0, No Iterations 0
ExecutionTime = 2.97 s  ClockTime = 3 s

Courant Number mean: 0 max: 0
Time = 25.815

PIMPLE: iteration 1
GAMG:  Solving for p, Initial residual = 0, Final residual = 0, No Iterations 0
time step continuity errors : sum local = 0, global = 0, cumulative = 0
smoothSolver:  Solving for A, Initial residual = 1.3072539e-05, Final residual = 7.3877959e-12, No Iterations 1
smoothSolver:  Solving for B, Initial residual = 0, Final residual = 0, No Iterations 0
ExecutionTime = 2.99 s  ClockTime = 3 s

Courant Number mean: 0 max: 0
Time = 25.82

PIMPLE: iteration 1
GAMG:  Solving for p, Initial residual = 0, Final residual = 0, No Iterations 0
time step continuity errors : sum local = 0, global = 0, cumulative = 0
smoothSolver:  Solving for A, Initial residual = 1.3071142e-05, Final residual = 7.3871409e-12, No Iterations 1
smoothSolver:  Solving for B, Initial residual = 0, Final residual = 0, No Iterations 0
ExecutionTime = 3.01 s  ClockTime = 3 s

Courant Number mean: 0 max: 0
Time = 25.825

PIMPLE: iteration 1
GAMG:  Solving for p, Initial residual = 0, Final residual = 0, No Iterations 0
time step continuity errors : sum local = 0, global = 0, cumulative = 0
smoothSolver:  Solving for A, Initial residual = 1.3069746e-05, Final residual = 7.3864914e-12, No Iterations 1
smoothSolver:  Solving for B, Initial residual = 0, Final residual = 0, No Iterations 0
ExecutionTime = 3.03 s  ClockTime = 3 s

Courant Number mean: 0 max: 0
Time = 25.83

PIMPLE: iteration 1
GAMG:  Solving for p, Initial residual = 0, Final residual = 0, No Iterations 0
time step continuity errors : sum local = 0, global = 0, cumulative = 0
smoothSolver:  Solving for A, Initial residual = 1.306835e-05, Final residual = 7.3858384e-12, No Iterations 1
smoothSolver:  Solving for B, Initial residual = 0, Final residual = 0, No Iterations 0
ExecutionTime = 3.04 s  ClockTime = 3 s

Courant Number mean: 0 max: 0
Time = 25.835

PIMPLE: iteration 1
GAMG:  Solving for p, Initial residual = 0, Final residual = 0, No Iterations 0
time step continuity errors : sum local = 0, global = 0, cumulative = 0
smoothSolver:  Solving for A, Initial residual = 1.3066954e-05, Final residual = 7.3851892e-12, No Iterations 1
smoothSolver:  Solving for B, Initial residual = 0, Final residual = 0, No Iterations 0
ExecutionTime = 3.05 s  ClockTime = 3 s

Courant Number mean: 0 max: 0
Time = 25.84

PIMPLE: iteration 1
GAMG:  Solving for p, Initial residual = 0, Final residual = 0, No Iterations 0
time step continuity errors : sum local = 0, global = 0, cumulative = 0
smoothSolver:  Solving for A, Initial residual = 1.306556e-05, Final residual = 7.3845356e-12, No Iterations 1
smoothSolver:  Solving for B, Initial residual = 0, Final residual = 0, No Iterations 0
ExecutionTime = 3.07 s  ClockTime = 3 s

Courant Number mean: 0 max: 0
Time = 25.845

PIMPLE: iteration 1
GAMG:  Solving for p, Initial residual = 0, Final residual = 0, No Iterations 0
time step continuity errors : sum local = 0, global = 0, cumulative = 0
smoothSolver:  Solving for A, Initial residual = 1.3064165e-05, Final residual = 7.3838831e-12, No Iterations 1
smoothSolver:  Solving for B, Initial residual = 0, Final residual = 0, No Iterations 0
ExecutionTime = 3.09 s  ClockTime = 3 s

Courant Number mean: 0 max: 0
Time = 25.85

PIMPLE: iteration 1
GAMG:  Solving for p, Initial residual = 0, Final residual = 0, No Iterations 0
time step continuity errors : sum local = 0, global = 0, cumulative = 0
smoothSolver:  Solving for A, Initial residual = 1.3062771e-05, Final residual = 7.3832317e-12, No Iterations 1
smoothSolver:  Solving for B, Initial residual = 0, Final residual = 0, No Iterations 0
ExecutionTime = 3.11 s  ClockTime = 3 s

Courant Number mean: 0 max: 0
Time = 25.855

PIMPLE: iteration 1
GAMG:  Solving for p, Initial residual = 0, Final residual = 0, No Iterations 0
time step continuity errors : sum local = 0, global = 0, cumulative = 0
smoothSolver:  Solving for A, Initial residual = 1.3061378e-05, Final residual = 7.3825871e-12, No Iterations 1
smoothSolver:  Solving for B, Initial residual = 0, Final residual = 0, No Iterations 0
ExecutionTime = 3.13 s  ClockTime = 3 s

Courant Number mean: 0 max: 0
Time = 25.86

PIMPLE: iteration 1
GAMG:  Solving for p, Initial residual = 0, Final residual = 0, No Iterations 0
time step continuity errors : sum local = 0, global = 0, cumulative = 0
[...]
smoothSolver:  Solving for B, Initial residual = 0, Final residual = 0, No Iterations 0
ExecutionTime = 57.95 s  ClockTime = 58 s

Courant Number mean: 0 max: 0
Time = 97.895

PIMPLE: iteration 1
GAMG:  Solving for p, Initial residual = 0, Final residual = 0, No Iterations 0
time step continuity errors : sum local = 0, global = 0, cumulative = 0
smoothSolver:  Solving for A, Initial residual = 6.3767558e-05, Final residual = 3.8020428e-09, No Iterations 1
smoothSolver:  Solving for B, Initial residual = 0, Final residual = 0, No Iterations 0
ExecutionTime = 57.97 s  ClockTime = 58 s

Courant Number mean: 0 max: 0
Time = 97.945

PIMPLE: iteration 1
GAMG:  Solving for p, Initial residual = 0, Final residual = 0, No Iterations 0
time step continuity errors : sum local = 0, global = 0, cumulative = 0
smoothSolver:  Solving for A, Initial residual = 6.3747053e-05, Final residual = 3.8009144e-09, No Iterations 1
smoothSolver:  Solving for B, Initial residual = 0, Final residual = 0, No Iterations 0
ExecutionTime = 57.98 s  ClockTime = 58 s

Courant Number mean: 0 max: 0
Time = 97.995

PIMPLE: iteration 1
GAMG:  Solving for p, Initial residual = 0, Final residual = 0, No Iterations 0
time step continuity errors : sum local = 0, global = 0, cumulative = 0
smoothSolver:  Solving for A, Initial residual = 6.3726563e-05, Final residual = 3.7997868e-09, No Iterations 1
smoothSolver:  Solving for B, Initial residual = 0, Final residual = 0, No Iterations 0
ExecutionTime = 58 s  ClockTime = 58 s

Courant Number mean: 0 max: 0
Time = 98.045

PIMPLE: iteration 1
GAMG:  Solving for p, Initial residual = 0, Final residual = 0, No Iterations 0
time step continuity errors : sum local = 0, global = 0, cumulative = 0
smoothSolver:  Solving for A, Initial residual = 6.3706086e-05, Final residual = 3.7986599e-09, No Iterations 1
smoothSolver:  Solving for B, Initial residual = 0, Final residual = 0, No Iterations 0
ExecutionTime = 58.02 s  ClockTime = 58 s

Courant Number mean: 0 max: 0
Time = 98.095

PIMPLE: iteration 1
GAMG:  Solving for p, Initial residual = 0, Final residual = 0, No Iterations 0
time step continuity errors : sum local = 0, global = 0, cumulative = 0
smoothSolver:  Solving for A, Initial residual = 6.3685623e-05, Final residual = 3.7975337e-09, No Iterations 1
smoothSolver:  Solving for B, Initial residual = 0, Final residual = 0, No Iterations 0
ExecutionTime = 58.04 s  ClockTime = 58 s

Courant Number mean: 0 max: 0
Time = 98.145

PIMPLE: iteration 1
GAMG:  Solving for p, Initial residual = 0, Final residual = 0, No Iterations 0
time step continuity errors : sum local = 0, global = 0, cumulative = 0
smoothSolver:  Solving for A, Initial residual = 6.3665173e-05, Final residual = 3.7964082e-09, No Iterations 1
smoothSolver:  Solving for B, Initial residual = 0, Final residual = 0, No Iterations 0
ExecutionTime = 58.06 s  ClockTime = 58 s

Courant Number mean: 0 max: 0
Time = 98.195

PIMPLE: iteration 1
GAMG:  Solving for p, Initial residual = 0, Final residual = 0, No Iterations 0
time step continuity errors : sum local = 0, global = 0, cumulative = 0
smoothSolver:  Solving for A, Initial residual = 6.3644736e-05, Final residual = 3.7952834e-09, No Iterations 1
smoothSolver:  Solving for B, Initial residual = 0, Final residual = 0, No Iterations 0
ExecutionTime = 58.08 s  ClockTime = 58 s

Courant Number mean: 0 max: 0
Time = 98.245

PIMPLE: iteration 1
GAMG:  Solving for p, Initial residual = 0, Final residual = 0, No Iterations 0
time step continuity errors : sum local = 0, global = 0, cumulative = 0
smoothSolver:  Solving for A, Initial residual = 6.3624313e-05, Final residual = 3.7941594e-09, No Iterations 1
smoothSolver:  Solving for B, Initial residual = 0, Final residual = 0, No Iterations 0
ExecutionTime = 58.1 s  ClockTime = 58 s

Courant Number mean: 0 max: 0
Time = 98.295

PIMPLE: iteration 1
GAMG:  Solving for p, Initial residual = 0, Final residual = 0, No Iterations 0
time step continuity errors : sum local = 0, global = 0, cumulative = 0
smoothSolver:  Solving for A, Initial residual = 6.3603904e-05, Final residual = 3.7930361e-09, No Iterations 1
smoothSolver:  Solving for B, Initial residual = 0, Final residual = 0, No Iterations 0
ExecutionTime = 58.11 s  ClockTime = 58 s

Courant Number mean: 0 max: 0
Time = 98.345

PIMPLE: iteration 1
GAMG:  Solving for p, Initial residual = 0, Final residual = 0, No Iterations 0
time step continuity errors : sum local = 0, global = 0, cumulative = 0
smoothSolver:  Solving for A, Initial residual = 6.3583508e-05, Final residual = 3.7919135e-09, No Iterations 1
smoothSolver:  Solving for B, Initial residual = 0, Final residual = 0, No Iterations 0
ExecutionTime = 58.13 s  ClockTime = 58 s

Courant Number mean: 0 max: 0
Time = 98.395

PIMPLE: iteration 1
GAMG:  Solving for p, Initial residual = 0, Final residual = 0, No Iterations 0
time step continuity errors : sum local = 0, global = 0, cumulative = 0
smoothSolver:  Solving for A, Initial residual = 6.3563126e-05, Final residual = 3.7907916e-09, No Iterations 1
smoothSolver:  Solving for B, Initial residual = 0, Final residual = 0, No Iterations 0
ExecutionTime = 58.15 s  ClockTime = 58 s

Courant Number mean: 0 max: 0
Time = 98.445

PIMPLE: iteration 1
GAMG:  Solving for p, Initial residual = 0, Final residual = 0, No Iterations 0
time step continuity errors : sum local = 0, global = 0, cumulative = 0
smoothSolver:  Solving for A, Initial residual = 6.3542757e-05, Final residual = 3.7896705e-09, No Iterations 1
smoothSolver:  Solving for B, Initial residual = 0, Final residual = 0, No Iterations 0
ExecutionTime = 58.17 s  ClockTime = 58 s

Courant Number mean: 0 max: 0
Time = 98.495

PIMPLE: iteration 1
GAMG:  Solving for p, Initial residual = 0, Final residual = 0, No Iterations 0
time step continuity errors : sum local = 0, global = 0, cumulative = 0
smoothSolver:  Solving for A, Initial residual = 6.3522401e-05, Final residual = 3.78855e-09, No Iterations 1
smoothSolver:  Solving for B, Initial residual = 0, Final residual = 0, No Iterations 0
ExecutionTime = 58.19 s  ClockTime = 58 s

Courant Number mean: 0 max: 0
Time = 98.545

PIMPLE: iteration 1
GAMG:  Solving for p, Initial residual = 0, Final residual = 0, No Iterations 0
time step continuity errors : sum local = 0, global = 0, cumulative = 0
smoothSolver:  Solving for A, Initial residual = 6.3502059e-05, Final residual = 3.7874303e-09, No Iterations 1
smoothSolver:  Solving for B, Initial residual = 0, Final residual = 0, No Iterations 0
ExecutionTime = 58.21 s  ClockTime = 58 s

Courant Number mean: 0 max: 0
Time = 98.595

PIMPLE: iteration 1
GAMG:  Solving for p, Initial residual = 0, Final residual = 0, No Iterations 0
time step continuity errors : sum local = 0, global = 0, cumulative = 0
smoothSolver:  Solving for A, Initial residual = 6.348173e-05, Final residual = 3.7863113e-09, No Iterations 1
smoothSolver:  Solving for B, Initial residual = 0, Final residual = 0, No Iterations 0
ExecutionTime = 58.23 s  ClockTime = 58 s

Courant Number mean: 0 max: 0
Time = 98.645

PIMPLE: iteration 1
GAMG:  Solving for p, Initial residual = 0, Final residual = 0, No Iterations 0
time step continuity errors : sum local = 0, global = 0, cumulative = 0
smoothSolver:  Solving for A, Initial residual = 6.3461415e-05, Final residual = 3.785193e-09, No Iterations 1
smoothSolver:  Solving for B, Initial residual = 0, Final residual = 0, No Iterations 0
ExecutionTime = 58.24 s  ClockTime = 58 s

Courant Number mean: 0 max: 0
Time = 98.695

PIMPLE: iteration 1
GAMG:  Solving for p, Initial residual = 0, Final residual = 0, No Iterations 0
time step continuity errors : sum local = 0, global = 0, cumulative = 0
smoothSolver:  Solving for A, Initial residual = 6.3441113e-05, Final residual = 3.7840754e-09, No Iterations 1
smoothSolver:  Solving for B, Initial residual = 0, Final residual = 0, No Iterations 0
ExecutionTime = 58.26 s  ClockTime = 58 s

Courant Number mean: 0 max: 0
Time = 98.745

PIMPLE: iteration 1
GAMG:  Solving for p, Initial residual = 0, Final residual = 0, No Iterations 0
time step continuity errors : sum local = 0, global = 0, cumulative = 0
smoothSolver:  Solving for A, Initial residual = 6.3420824e-05, Final residual = 3.7829585e-09, No Iterations 1
smoothSolver:  Solving for B, Initial residual = 0, Final residual = 0, No Iterations 0
ExecutionTime = 58.28 s  ClockTime = 58 s

Courant Number mean: 0 max: 0
Time = 98.795

PIMPLE: iteration 1
GAMG:  Solving for p, Initial residual = 0, Final residual = 0, No Iterations 0
time step continuity errors : sum local = 0, global = 0, cumulative = 0
smoothSolver:  Solving for A, Initial residual = 6.3400549e-05, Final residual = 3.7818423e-09, No Iterations 1
smoothSolver:  Solving for B, Initial residual = 0, Final residual = 0, No Iterations 0
ExecutionTime = 58.3 s  ClockTime = 58 s

Courant Number mean: 0 max: 0
Time = 98.845

PIMPLE: iteration 1
GAMG:  Solving for p, Initial residual = 0, Final residual = 0, No Iterations 0
time step continuity errors : sum local = 0, global = 0, cumulative = 0
smoothSolver:  Solving for A, Initial residual = 6.3380287e-05, Final residual = 3.7807269e-09, No Iterations 1
smoothSolver:  Solving for B, Initial residual = 0, Final residual = 0, No Iterations 0
ExecutionTime = 58.32 s  ClockTime = 58 s

Courant Number mean: 0 max: 0
Time = 98.895

PIMPLE: iteration 1
GAMG:  Solving for p, Initial residual = 0, Final residual = 0, No Iterations 0
time step continuity errors : sum local = 0, global = 0, cumulative = 0
smoothSolver:  Solving for A, Initial residual = 6.3360038e-05, Final residual = 3.7796122e-09, No Iterations 1
smoothSolver:  Solving for B, Initial residual = 0, Final residual = 0, No Iterations 0
ExecutionTime = 58.34 s  ClockTime = 58 s

Courant Number mean: 0 max: 0
Time = 98.945

PIMPLE: iteration 1
GAMG:  Solving for p, Initial residual = 0, Final residual = 0, No Iterations 0
time step continuity errors : sum local = 0, global = 0, cumulative = 0
smoothSolver:  Solving for A, Initial residual = 6.3339803e-05, Final residual = 3.7784981e-09, No Iterations 1
smoothSolver:  Solving for B, Initial residual = 0, Final residual = 0, No Iterations 0
ExecutionTime = 58.35 s  ClockTime = 58 s

Courant Number mean: 0 max: 0
Time = 98.995

PIMPLE: iteration 1
GAMG:  Solving for p, Initial residual = 0, Final residual = 0, No Iterations 0
time step continuity errors : sum local = 0, global = 0, cumulative = 0
smoothSolver:  Solving for A, Initial residual = 6.3319581e-05, Final residual = 3.7773848e-09, No Iterations 1
smoothSolver:  Solving for B, Initial residual = 0, Final residual = 0, No Iterations 0
ExecutionTime = 58.39 s  ClockTime = 58 s

Courant Number mean: 0 max: 0
Time = 99.045

PIMPLE: iteration 1
GAMG:  Solving for p, Initial residual = 0, Final residual = 0, No Iterations 0
time step continuity errors : sum local = 0, global = 0, cumulative = 0
smoothSolver:  Solving for A, Initial residual = 6.3299372e-05, Final residual = 3.7762722e-09, No Iterations 1
smoothSolver:  Solving for B, Initial residual = 0, Final residual = 0, No Iterations 0
ExecutionTime = 58.4 s  ClockTime = 58 s

Courant Number mean: 0 max: 0
Time = 99.095

PIMPLE: iteration 1
GAMG:  Solving for p, Initial residual = 0, Final residual = 0, No Iterations 0
time step continuity errors : sum local = 0, global = 0, cumulative = 0
smoothSolver:  Solving for A, Initial residual = 6.3279177e-05, Final residual = 3.7751603e-09, No Iterations 1
smoothSolver:  Solving for B, Initial residual = 0, Final residual = 0, No Iterations 0
ExecutionTime = 58.41 s  ClockTime = 58 s

Courant Number mean: 0 max: 0
Time = 99.145

PIMPLE: iteration 1
GAMG:  Solving for p, Initial residual = 0, Final residual = 0, No Iterations 0
time step continuity errors : sum local = 0, global = 0, cumulative = 0
smoothSolver:  Solving for A, Initial residual = 6.3258994e-05, Final residual = 3.7740491e-09, No Iterations 1
smoothSolver:  Solving for B, Initial residual = 0, Final residual = 0, No Iterations 0
ExecutionTime = 58.43 s  ClockTime = 58 s

Courant Number mean: 0 max: 0
Time = 99.195

PIMPLE: iteration 1
GAMG:  Solving for p, Initial residual = 0, Final residual = 0, No Iterations 0
time step continuity errors : sum local = 0, global = 0, cumulative = 0
smoothSolver:  Solving for A, Initial residual = 6.3238825e-05, Final residual = 3.7729386e-09, No Iterations 1
smoothSolver:  Solving for B, Initial residual = 0, Final residual = 0, No Iterations 0
ExecutionTime = 58.45 s  ClockTime = 58 s

Courant Number mean: 0 max: 0
Time = 99.245

PIMPLE: iteration 1
GAMG:  Solving for p, Initial residual = 0, Final residual = 0, No Iterations 0
time step continuity errors : sum local = 0, global = 0, cumulative = 0
smoothSolver:  Solving for A, Initial residual = 6.3218669e-05, Final residual = 3.7718288e-09, No Iterations 1
smoothSolver:  Solving for B, Initial residual = 0, Final residual = 0, No Iterations 0
ExecutionTime = 58.47 s  ClockTime = 58 s

Courant Number mean: 0 max: 0
Time = 99.295

PIMPLE: iteration 1
GAMG:  Solving for p, Initial residual = 0, Final residual = 0, No Iterations 0
time step continuity errors : sum local = 0, global = 0, cumulative = 0
smoothSolver:  Solving for A, Initial residual = 6.3198526e-05, Final residual = 3.7707197e-09, No Iterations 1
smoothSolver:  Solving for B, Initial residual = 0, Final residual = 0, No Iterations 0
ExecutionTime = 58.49 s  ClockTime = 58 s

Courant Number mean: 0 max: 0
Time = 99.345

PIMPLE: iteration 1
GAMG:  Solving for p, Initial residual = 0, Final residual = 0, No Iterations 0
time step continuity errors : sum local = 0, global = 0, cumulative = 0
smoothSolver:  Solving for A, Initial residual = 6.3178397e-05, Final residual = 3.7696113e-09, No Iterations 1
smoothSolver:  Solving for B, Initial residual = 0, Final residual = 0, No Iterations 0
ExecutionTime = 58.51 s  ClockTime = 58 s

Courant Number mean: 0 max: 0
Time = 99.395

PIMPLE: iteration 1
GAMG:  Solving for p, Initial residual = 0, Final residual = 0, No Iterations 0
time step continuity errors : sum local = 0, global = 0, cumulative = 0
smoothSolver:  Solving for A, Initial residual = 6.3158281e-05, Final residual = 3.7685037e-09, No Iterations 1
smoothSolver:  Solving for B, Initial residual = 0, Final residual = 0, No Iterations 0
ExecutionTime = 58.52 s  ClockTime = 58 s

Courant Number mean: 0 max: 0
Time = 99.445

PIMPLE: iteration 1
GAMG:  Solving for p, Initial residual = 0, Final residual = 0, No Iterations 0
time step continuity errors : sum local = 0, global = 0, cumulative = 0
smoothSolver:  Solving for A, Initial residual = 6.3138177e-05, Final residual = 3.7673967e-09, No Iterations 1
smoothSolver:  Solving for B, Initial residual = 0, Final residual = 0, No Iterations 0
ExecutionTime = 58.54 s  ClockTime = 58 s

Courant Number mean: 0 max: 0
Time = 99.495

PIMPLE: iteration 1
GAMG:  Solving for p, Initial residual = 0, Final residual = 0, No Iterations 0
time step continuity errors : sum local = 0, global = 0, cumulative = 0
smoothSolver:  Solving for A, Initial residual = 6.3118087e-05, Final residual = 3.7662904e-09, No Iterations 1
smoothSolver:  Solving for B, Initial residual = 0, Final residual = 0, No Iterations 0
ExecutionTime = 58.56 s  ClockTime = 58 s

Courant Number mean: 0 max: 0
Time = 99.545

PIMPLE: iteration 1
GAMG:  Solving for p, Initial residual = 0, Final residual = 0, No Iterations 0
time step continuity errors : sum local = 0, global = 0, cumulative = 0
smoothSolver:  Solving for A, Initial residual = 6.309801e-05, Final residual = 3.7651848e-09, No Iterations 1
smoothSolver:  Solving for B, Initial residual = 0, Final residual = 0, No Iterations 0
ExecutionTime = 58.58 s  ClockTime = 58 s

Courant Number mean: 0 max: 0
Time = 99.595

PIMPLE: iteration 1
GAMG:  Solving for p, Initial residual = 0, Final residual = 0, No Iterations 0
time step continuity errors : sum local = 0, global = 0, cumulative = 0
smoothSolver:  Solving for A, Initial residual = 6.3077946e-05, Final residual = 3.76408e-09, No Iterations 1
smoothSolver:  Solving for B, Initial residual = 0, Final residual = 0, No Iterations 0
ExecutionTime = 58.61 s  ClockTime = 58 s

Courant Number mean: 0 max: 0
Time = 99.645

PIMPLE: iteration 1
GAMG:  Solving for p, Initial residual = 0, Final residual = 0, No Iterations 0
time step continuity errors : sum local = 0, global = 0, cumulative = 0
smoothSolver:  Solving for A, Initial residual = 6.3057896e-05, Final residual = 3.7629758e-09, No Iterations 1
smoothSolver:  Solving for B, Initial residual = 0, Final residual = 0, No Iterations 0
ExecutionTime = 58.62 s  ClockTime = 58 s

Courant Number mean: 0 max: 0
Time = 99.695

PIMPLE: iteration 1
GAMG:  Solving for p, Initial residual = 0, Final residual = 0, No Iterations 0
time step continuity errors : sum local = 0, global = 0, cumulative = 0
smoothSolver:  Solving for A, Initial residual = 6.3037858e-05, Final residual = 3.7618723e-09, No Iterations 1
smoothSolver:  Solving for B, Initial residual = 0, Final residual = 0, No Iterations 0
ExecutionTime = 58.64 s  ClockTime = 58 s

Courant Number mean: 0 max: 0
Time = 99.745

PIMPLE: iteration 1
GAMG:  Solving for p, Initial residual = 0, Final residual = 0, No Iterations 0
time step continuity errors : sum local = 0, global = 0, cumulative = 0
smoothSolver:  Solving for A, Initial residual = 6.3017833e-05, Final residual = 3.7607695e-09, No Iterations 1
smoothSolver:  Solving for B, Initial residual = 0, Final residual = 0, No Iterations 0
ExecutionTime = 58.65 s  ClockTime = 58 s

Courant Number mean: 0 max: 0
Time = 99.795

PIMPLE: iteration 1
GAMG:  Solving for p, Initial residual = 0, Final residual = 0, No Iterations 0
time step continuity errors : sum local = 0, global = 0, cumulative = 0
smoothSolver:  Solving for A, Initial residual = 6.2997822e-05, Final residual = 3.7596675e-09, No Iterations 1
smoothSolver:  Solving for B, Initial residual = 0, Final residual = 0, No Iterations 0
ExecutionTime = 58.67 s  ClockTime = 58 s

Courant Number mean: 0 max: 0
Time = 99.845

PIMPLE: iteration 1
GAMG:  Solving for p, Initial residual = 0, Final residual = 0, No Iterations 0
time step continuity errors : sum local = 0, global = 0, cumulative = 0
smoothSolver:  Solving for A, Initial residual = 6.2977823e-05, Final residual = 3.7585661e-09, No Iterations 1
smoothSolver:  Solving for B, Initial residual = 0, Final residual = 0, No Iterations 0
ExecutionTime = 58.69 s  ClockTime = 58 s

Courant Number mean: 0 max: 0
Time = 99.895

PIMPLE: iteration 1
GAMG:  Solving for p, Initial residual = 0, Final residual = 0, No Iterations 0
time step continuity errors : sum local = 0, global = 0, cumulative = 0
smoothSolver:  Solving for A, Initial residual = 6.2957837e-05, Final residual = 3.7574654e-09, No Iterations 1
smoothSolver:  Solving for B, Initial residual = 0, Final residual = 0, No Iterations 0
ExecutionTime = 58.72 s  ClockTime = 58 s

Courant Number mean: 0 max: 0
Time = 99.945

PIMPLE: iteration 1
GAMG:  Solving for p, Initial residual = 0, Final residual = 0, No Iterations 0
time step continuity errors : sum local = 0, global = 0, cumulative = 0
smoothSolver:  Solving for A, Initial residual = 6.2937865e-05, Final residual = 3.7563654e-09, No Iterations 1
smoothSolver:  Solving for B, Initial residual = 0, Final residual = 0, No Iterations 0
ExecutionTime = 58.73 s  ClockTime = 58 s

Courant Number mean: 0 max: 0
Time = 99.995

PIMPLE: iteration 1
GAMG:  Solving for p, Initial residual = 0, Final residual = 0, No Iterations 0
time step continuity errors : sum local = 0, global = 0, cumulative = 0
smoothSolver:  Solving for A, Initial residual = 6.2917905e-05, Final residual = 3.7552661e-09, No Iterations 1
smoothSolver:  Solving for B, Initial residual = 0, Final residual = 0, No Iterations 0
ExecutionTime = 58.76 s  ClockTime = 59 s

End

